version 3
run TestTdd-0-20260712-14:08:14-21825
attr configname TestTdd
attr datetime 20260712-14:08:14
attr datetimef 20260712-140814
attr experiment TestTdd
attr inifile omnetpp.ini
attr iterationvars "$useTdd=false, $numUE=1"
attr iterationvarsd useTdd=false/numUE=1
attr iterationvarsf useTdd=false,numUE=1-
attr measurement "$useTdd=false, $numUE=1"
attr network simu5g.simulations.nr.networks.SingleCell_withSecondaryGnb
attr processid 21825
attr repetition 0
attr replication #0
attr resultdir results
attr runnumber 0
attr seedset 0
itervar numUE 1
itervar useTdd false
config **.param-recording false
config image-path /home/andras/projects/Simu5G-fork/simu5g-fork/images
config output-scalar-file results/omnetpp.ini-TestTdd-#0.sca
config output-scalar-precision 17
config output-vector-file results/omnetpp.ini-TestTdd-#0.vec
config output-vector-precision 17
config record-eventlog false
config sim-time-limit 20s
config network simu5g.simulations.nr.networks.SingleCell_withSecondaryGnb
config *.carrierAggregation.numComponentCarriers 1
config *.carrierAggregation.componentCarrier[0].numerologyIndex 0
config *.carrierAggregation.componentCarrier[0].carrierFrequency 2GHz
config *.carrierAggregation.componentCarrier[0].numBands 6
config *.carrierAggregation.componentCarrier[0].useTdd false
config *.masterEnb.mobility.initialX 300m
config *.masterEnb.mobility.initialY 300m
config *.secondaryGnb.mobility.initialX 600m
config *.secondaryGnb.mobility.initialY 300m
config *.masterEnb.cellularNic.typename LteNicEnbD2D
config *.masterEnb.cellularNic.pdcp.typename NrPdcpEnb
config *.secondaryGnb.masterId 1
config **.dualConnectivityEnabled true
config *.*nb.numX2Apps 1
config *.*nb.x2App[*].server.localPort "5000 + ancestorIndex(1)"
config *.masterEnb.x2App[0].client.connectAddress "\"secondaryGnb%x2ppp0\""
config *.secondaryGnb.x2App[0].client.connectAddress "\"masterEnb%x2ppp0\""
config *.numUe 1
config *.ue[*].servingNodeId 1
config *.ue[*].nrServingNodeId 2
config **.mobility.constraintAreaMaxX 700m
config **.mobility.constraintAreaMaxY 400m
config **.mobility.constraintAreaMinX 200m
config **.mobility.constraintAreaMinY 200m
config *.ue[*].mobility.typename StationaryMobility
config *.ue[*].mobility.initialX 600m
config *.ue[*].mobility.initialY 350m
config *.ue[*].numApps 1
config *.server.numApps 1
config *.ue[*].app[*].typename CbrReceiver
config *.ue[*].app[0].localPort 10000
config *.server.app[*].packetSize 3000B
config *.server.app[*].samplingTime 0.001s
config *.server.app[*].destAddress "\"ue[\"+string(ancestorIndex(0))+\"]\""
config *.server.app[*].destPort 10000
config *.server.app[*].tos 10
config *.server.app[*].localPort 3088+ancestorIndex(0)
config *.server.app[*].typename CbrSender
config *.server.app[*].startTime 0.02s
config output-scalar-file results/TestTdd/useTdd=false-0.sca
config output-vector-file results/TestTdd/useTdd=false-0.vec
config sim-time-limit 20s
config warmup-period 1s
config **.routingRecorder.enabled false
config seed-set 0
config **.sctp.**.scalar-recording false
config **.sctp.**.vector-recording false
config **.vector-recording true
config **.mobility.constraintAreaMinZ 0m
config **.mobility.constraintAreaMaxZ 0m
config **.mobility.initFromDisplayString false
config **.eNodeBTxPower 40dBm
config **.sctp.nagleEnabled false
config **.sctp.enableHeartbeats false
config **.downlinkInterference true
config **.uplinkInterference true
config **.enableHandover true
config **.fbPeriod 10tti
config **.amcType "\"NrAmc\""
config **.pilotMode "\"ROBUST_CQI\""
config **.targetBler 0.01
config **.blerShift 5
config *.configurator.config "xmldoc(\"./demo.xml\")"

scalar SingleCell_withSecondaryGnb.masterEnb.x2App[0].client ums 1452
scalar SingleCell_withSecondaryGnb.secondaryGnb.x2App[0].client ums 1452
scalar SingleCell_withSecondaryGnb.server.lo[0].lo rcvdPkFromHl:count 0
scalar SingleCell_withSecondaryGnb.server.lo[0].lo rcvdPkFromHl:sum(packetBytes) 0
scalar SingleCell_withSecondaryGnb.server.lo[0].lo passedUpPk:count 0
scalar SingleCell_withSecondaryGnb.server.lo[0].lo passedUpPk:sum(packetBytes) 0
scalar SingleCell_withSecondaryGnb.server.lo[0] packetDropInterfaceDown:count 0
scalar SingleCell_withSecondaryGnb.server.lo[0] packetDropInterfaceDown:sum(packetBytes) 0
scalar SingleCell_withSecondaryGnb.server.lo[0] packetDropNoCarrier:count 0
scalar SingleCell_withSecondaryGnb.server.lo[0] packetDropNoCarrier:sum(packetBytes) 0
scalar SingleCell_withSecondaryGnb.server.ppp[0].queue queueLength:last 0
scalar SingleCell_withSecondaryGnb.server.ppp[0].queue queueLength:max 0
scalar SingleCell_withSecondaryGnb.server.ppp[0].queue queueLength:timeavg 0
scalar SingleCell_withSecondaryGnb.server.ppp[0].queue queueBitLength:last 0
scalar SingleCell_withSecondaryGnb.server.ppp[0].queue queueBitLength:max 0
scalar SingleCell_withSecondaryGnb.server.ppp[0].queue queueBitLength:timeavg 0
scalar SingleCell_withSecondaryGnb.server.ppp[0].queue outgoingPackets:count 19001
scalar SingleCell_withSecondaryGnb.server.ppp[0].queue outgoingPacketLengths:sum 460280224
scalar SingleCell_withSecondaryGnb.server.ppp[0].queue incomingPackets:count 19001
scalar SingleCell_withSecondaryGnb.server.ppp[0].queue incomingPacketLengths:sum 460280224
scalar SingleCell_withSecondaryGnb.server.ppp[0].queue droppedPacketsQueueOverflow:count 0
scalar SingleCell_withSecondaryGnb.server.ppp[0].queue droppedPacketLengthsQueueOverflow:sum 0
scalar SingleCell_withSecondaryGnb.server.ppp[0].ppp transmissionState:timeavg 0.0024279999999992402
scalar SingleCell_withSecondaryGnb.server.ppp[0].ppp rxPkOk:count 0
scalar SingleCell_withSecondaryGnb.server.ppp[0].ppp rxPkOk:sum(packetBytes) 0
scalar SingleCell_withSecondaryGnb.server.ppp[0].ppp txPk:count 19001
scalar SingleCell_withSecondaryGnb.server.ppp[0].ppp txPk:sum(packetBytes) 57668035
scalar SingleCell_withSecondaryGnb.server.ppp[0].ppp rcvdPkFromHl:count 19001
scalar SingleCell_withSecondaryGnb.server.ppp[0].ppp rcvdPkFromHl:sum(packetBytes) 57535028
scalar SingleCell_withSecondaryGnb.server.ppp[0].ppp passedUpPk:count 0
scalar SingleCell_withSecondaryGnb.server.ppp[0].ppp passedUpPk:sum(packetBytes) 0
scalar SingleCell_withSecondaryGnb.server.ppp[0].ppp packetDropIncorrectlyReceived:count 0
scalar SingleCell_withSecondaryGnb.server.ppp[0].ppp packetDropIncorrectlyReceived:sum(packetBytes) 0
scalar SingleCell_withSecondaryGnb.server.ppp[0].ppp packetDropInterfaceDown:count 0
scalar SingleCell_withSecondaryGnb.server.ppp[0].ppp packetDropInterfaceDown:sum(packetBytes) 0
scalar SingleCell_withSecondaryGnb.server.ppp[0] packetDropInterfaceDown:count 0
scalar SingleCell_withSecondaryGnb.server.ppp[0] packetDropInterfaceDown:sum(packetBytes) 0
scalar SingleCell_withSecondaryGnb.server.ppp[0] packetDropNoCarrier:count 0
scalar SingleCell_withSecondaryGnb.server.ppp[0] packetDropNoCarrier:sum(packetBytes) 0
scalar SingleCell_withSecondaryGnb.server.ipv4.ip packetDropAddressResolutionFailed:count 0
scalar SingleCell_withSecondaryGnb.server.ipv4.ip packetDropAddressResolutionFailed:sum(packetBytes) 0
scalar SingleCell_withSecondaryGnb.server.ipv4.ip packetDropHopLimitReached:count 0
scalar SingleCell_withSecondaryGnb.server.ipv4.ip packetDropHopLimitReached:sum(packetBytes) 0
scalar SingleCell_withSecondaryGnb.server.ipv4.ip packetDropForwardingDisabled:count 0
scalar SingleCell_withSecondaryGnb.server.ipv4.ip packetDropForwardingDisabled:sum(packetBytes) 0
scalar SingleCell_withSecondaryGnb.server.ipv4.ip packetDropNoInterfaceFound:count 0
scalar SingleCell_withSecondaryGnb.server.ipv4.ip packetDropNoInterfaceFound:sum(packetBytes) 0
scalar SingleCell_withSecondaryGnb.server.ipv4.ip packetDropNoRouteFound:count 0
scalar SingleCell_withSecondaryGnb.server.ipv4.ip packetDropNoRouteFound:sum(packetBytes) 0
scalar SingleCell_withSecondaryGnb.server.ipv4.ip packetDropUndefined:count 0
scalar SingleCell_withSecondaryGnb.server.ipv4.ip packetDropUndefined:sum(packetBytes) 0
scalar SingleCell_withSecondaryGnb.server.ipv4.arp arpResolutionFailed:count 0
scalar SingleCell_withSecondaryGnb.server.ipv4.arp arpResolutionCompleted:count 0
scalar SingleCell_withSecondaryGnb.server.ipv4.arp arpResolutionInitiated:count 0
scalar SingleCell_withSecondaryGnb.server.ipv4.arp arpReplySent:count 0
scalar SingleCell_withSecondaryGnb.server.ipv4.arp arpReplySent:sum(packetBytes) 0
scalar SingleCell_withSecondaryGnb.server.ipv4.arp arpRequestSent:count 0
scalar SingleCell_withSecondaryGnb.server.ipv4.arp arpRequestSent:sum(packetBytes) 0
scalar SingleCell_withSecondaryGnb.server.udp packetReceived:count 0
scalar SingleCell_withSecondaryGnb.server.udp packetReceived:sum(packetBytes) 0
scalar SingleCell_withSecondaryGnb.server.udp packetSent:count 19001
scalar SingleCell_withSecondaryGnb.server.udp packetSent:sum(packetBytes) 57155008
scalar SingleCell_withSecondaryGnb.server.udp passedUpPk:count 0
scalar SingleCell_withSecondaryGnb.server.udp droppedPkWrongPort:count 0
scalar SingleCell_withSecondaryGnb.server.udp droppedPkBadChecksum:count 0
scalar SingleCell_withSecondaryGnb.server.app[0] cbrGeneratedBytes:mean 3000
scalar SingleCell_withSecondaryGnb.server.app[0] cbrGeneratedBytes:last(sumPerDuration) 3000157.8947368423
scalar SingleCell_withSecondaryGnb.server.app[0] cbrGeneratedThroughput:simu5g_rateavg 3000000
scalar SingleCell_withSecondaryGnb.router.lo[0].lo rcvdPkFromHl:count 0
scalar SingleCell_withSecondaryGnb.router.lo[0].lo rcvdPkFromHl:sum(packetBytes) 0
scalar SingleCell_withSecondaryGnb.router.lo[0].lo passedUpPk:count 0
scalar SingleCell_withSecondaryGnb.router.lo[0].lo passedUpPk:sum(packetBytes) 0
scalar SingleCell_withSecondaryGnb.router.lo[0] packetDropInterfaceDown:count 0
scalar SingleCell_withSecondaryGnb.router.lo[0] packetDropInterfaceDown:sum(packetBytes) 0
scalar SingleCell_withSecondaryGnb.router.lo[0] packetDropNoCarrier:count 0
scalar SingleCell_withSecondaryGnb.router.lo[0] packetDropNoCarrier:sum(packetBytes) 0
scalar SingleCell_withSecondaryGnb.router.ppp[0].queue queueLength:last 0
scalar SingleCell_withSecondaryGnb.router.ppp[0].queue queueLength:max 0
scalar SingleCell_withSecondaryGnb.router.ppp[0].queue queueLength:timeavg 0
scalar SingleCell_withSecondaryGnb.router.ppp[0].queue queueBitLength:last 0
scalar SingleCell_withSecondaryGnb.router.ppp[0].queue queueBitLength:max 0
scalar SingleCell_withSecondaryGnb.router.ppp[0].queue queueBitLength:timeavg 0
scalar SingleCell_withSecondaryGnb.router.ppp[0].queue outgoingPackets:count 0
scalar SingleCell_withSecondaryGnb.router.ppp[0].queue outgoingPacketLengths:sum 0
scalar SingleCell_withSecondaryGnb.router.ppp[0].queue incomingPackets:count 0
scalar SingleCell_withSecondaryGnb.router.ppp[0].queue incomingPacketLengths:sum 0
scalar SingleCell_withSecondaryGnb.router.ppp[0].queue droppedPacketsQueueOverflow:count 0
scalar SingleCell_withSecondaryGnb.router.ppp[0].queue droppedPacketLengthsQueueOverflow:sum 0
scalar SingleCell_withSecondaryGnb.router.ppp[0].ppp transmissionState:timeavg -nan
scalar SingleCell_withSecondaryGnb.router.ppp[0].ppp rxPkOk:count 19000
scalar SingleCell_withSecondaryGnb.router.ppp[0].ppp rxPkOk:sum(packetBytes) 57665000
scalar SingleCell_withSecondaryGnb.router.ppp[0].ppp txPk:count 0
scalar SingleCell_withSecondaryGnb.router.ppp[0].ppp txPk:sum(packetBytes) 0
scalar SingleCell_withSecondaryGnb.router.ppp[0].ppp rcvdPkFromHl:count 0
scalar SingleCell_withSecondaryGnb.router.ppp[0].ppp rcvdPkFromHl:sum(packetBytes) 0
scalar SingleCell_withSecondaryGnb.router.ppp[0].ppp passedUpPk:count 19000
scalar SingleCell_withSecondaryGnb.router.ppp[0].ppp passedUpPk:sum(packetBytes) 57532000
scalar SingleCell_withSecondaryGnb.router.ppp[0].ppp packetDropIncorrectlyReceived:count 0
scalar SingleCell_withSecondaryGnb.router.ppp[0].ppp packetDropIncorrectlyReceived:sum(packetBytes) 0
scalar SingleCell_withSecondaryGnb.router.ppp[0].ppp packetDropInterfaceDown:count 0
scalar SingleCell_withSecondaryGnb.router.ppp[0].ppp packetDropInterfaceDown:sum(packetBytes) 0
scalar SingleCell_withSecondaryGnb.router.ppp[0] packetDropInterfaceDown:count 0
scalar SingleCell_withSecondaryGnb.router.ppp[0] packetDropInterfaceDown:sum(packetBytes) 0
scalar SingleCell_withSecondaryGnb.router.ppp[0] packetDropNoCarrier:count 0
scalar SingleCell_withSecondaryGnb.router.ppp[0] packetDropNoCarrier:sum(packetBytes) 0
scalar SingleCell_withSecondaryGnb.router.ppp[1].queue queueLength:last 0
scalar SingleCell_withSecondaryGnb.router.ppp[1].queue queueLength:max 0
scalar SingleCell_withSecondaryGnb.router.ppp[1].queue queueLength:timeavg 0
scalar SingleCell_withSecondaryGnb.router.ppp[1].queue queueBitLength:last 0
scalar SingleCell_withSecondaryGnb.router.ppp[1].queue queueBitLength:max 0
scalar SingleCell_withSecondaryGnb.router.ppp[1].queue queueBitLength:timeavg 0
scalar SingleCell_withSecondaryGnb.router.ppp[1].queue outgoingPackets:count 19000
scalar SingleCell_withSecondaryGnb.router.ppp[1].queue outgoingPacketLengths:sum 460256000
scalar SingleCell_withSecondaryGnb.router.ppp[1].queue incomingPackets:count 19000
scalar SingleCell_withSecondaryGnb.router.ppp[1].queue incomingPacketLengths:sum 460256000
scalar SingleCell_withSecondaryGnb.router.ppp[1].queue droppedPacketsQueueOverflow:count 0
scalar SingleCell_withSecondaryGnb.router.ppp[1].queue droppedPacketLengthsQueueOverflow:sum 0
scalar SingleCell_withSecondaryGnb.router.ppp[1].ppp transmissionState:timeavg 0.0024280003166615972
scalar SingleCell_withSecondaryGnb.router.ppp[1].ppp rxPkOk:count 0
scalar SingleCell_withSecondaryGnb.router.ppp[1].ppp rxPkOk:sum(packetBytes) 0
scalar SingleCell_withSecondaryGnb.router.ppp[1].ppp txPk:count 19000
scalar SingleCell_withSecondaryGnb.router.ppp[1].ppp txPk:sum(packetBytes) 57665000
scalar SingleCell_withSecondaryGnb.router.ppp[1].ppp rcvdPkFromHl:count 19000
scalar SingleCell_withSecondaryGnb.router.ppp[1].ppp rcvdPkFromHl:sum(packetBytes) 57532000
scalar SingleCell_withSecondaryGnb.router.ppp[1].ppp passedUpPk:count 0
scalar SingleCell_withSecondaryGnb.router.ppp[1].ppp passedUpPk:sum(packetBytes) 0
scalar SingleCell_withSecondaryGnb.router.ppp[1].ppp packetDropIncorrectlyReceived:count 0
scalar SingleCell_withSecondaryGnb.router.ppp[1].ppp packetDropIncorrectlyReceived:sum(packetBytes) 0
scalar SingleCell_withSecondaryGnb.router.ppp[1].ppp packetDropInterfaceDown:count 0
scalar SingleCell_withSecondaryGnb.router.ppp[1].ppp packetDropInterfaceDown:sum(packetBytes) 0
scalar SingleCell_withSecondaryGnb.router.ppp[1] packetDropInterfaceDown:count 0
scalar SingleCell_withSecondaryGnb.router.ppp[1] packetDropInterfaceDown:sum(packetBytes) 0
scalar SingleCell_withSecondaryGnb.router.ppp[1] packetDropNoCarrier:count 0
scalar SingleCell_withSecondaryGnb.router.ppp[1] packetDropNoCarrier:sum(packetBytes) 0
scalar SingleCell_withSecondaryGnb.router.ipv4.ip packetDropAddressResolutionFailed:count 0
scalar SingleCell_withSecondaryGnb.router.ipv4.ip packetDropAddressResolutionFailed:sum(packetBytes) 0
scalar SingleCell_withSecondaryGnb.router.ipv4.ip packetDropHopLimitReached:count 0
scalar SingleCell_withSecondaryGnb.router.ipv4.ip packetDropHopLimitReached:sum(packetBytes) 0
scalar SingleCell_withSecondaryGnb.router.ipv4.ip packetDropForwardingDisabled:count 0
scalar SingleCell_withSecondaryGnb.router.ipv4.ip packetDropForwardingDisabled:sum(packetBytes) 0
scalar SingleCell_withSecondaryGnb.router.ipv4.ip packetDropNoInterfaceFound:count 0
scalar SingleCell_withSecondaryGnb.router.ipv4.ip packetDropNoInterfaceFound:sum(packetBytes) 0
scalar SingleCell_withSecondaryGnb.router.ipv4.ip packetDropNoRouteFound:count 0
scalar SingleCell_withSecondaryGnb.router.ipv4.ip packetDropNoRouteFound:sum(packetBytes) 0
scalar SingleCell_withSecondaryGnb.router.ipv4.ip packetDropUndefined:count 0
scalar SingleCell_withSecondaryGnb.router.ipv4.ip packetDropUndefined:sum(packetBytes) 0
scalar SingleCell_withSecondaryGnb.router.ipv4.arp arpResolutionFailed:count 0
scalar SingleCell_withSecondaryGnb.router.ipv4.arp arpResolutionCompleted:count 0
scalar SingleCell_withSecondaryGnb.router.ipv4.arp arpResolutionInitiated:count 0
scalar SingleCell_withSecondaryGnb.router.ipv4.arp arpReplySent:count 0
scalar SingleCell_withSecondaryGnb.router.ipv4.arp arpReplySent:sum(packetBytes) 0
scalar SingleCell_withSecondaryGnb.router.ipv4.arp arpRequestSent:count 0
scalar SingleCell_withSecondaryGnb.router.ipv4.arp arpRequestSent:sum(packetBytes) 0
scalar SingleCell_withSecondaryGnb.pgw.lo[0].lo rcvdPkFromHl:count 0
scalar SingleCell_withSecondaryGnb.pgw.lo[0].lo rcvdPkFromHl:sum(packetBytes) 0
scalar SingleCell_withSecondaryGnb.pgw.lo[0].lo passedUpPk:count 0
scalar SingleCell_withSecondaryGnb.pgw.lo[0].lo passedUpPk:sum(packetBytes) 0
scalar SingleCell_withSecondaryGnb.pgw.lo[0] packetDropInterfaceDown:count 0
scalar SingleCell_withSecondaryGnb.pgw.lo[0] packetDropInterfaceDown:sum(packetBytes) 0
scalar SingleCell_withSecondaryGnb.pgw.lo[0] packetDropNoCarrier:count 0
scalar SingleCell_withSecondaryGnb.pgw.lo[0] packetDropNoCarrier:sum(packetBytes) 0
scalar SingleCell_withSecondaryGnb.pgw.ppp[0].queue queueLength:last 0
scalar SingleCell_withSecondaryGnb.pgw.ppp[0].queue queueLength:max 0
scalar SingleCell_withSecondaryGnb.pgw.ppp[0].queue queueLength:timeavg 0
scalar SingleCell_withSecondaryGnb.pgw.ppp[0].queue queueBitLength:last 0
scalar SingleCell_withSecondaryGnb.pgw.ppp[0].queue queueBitLength:max 0
scalar SingleCell_withSecondaryGnb.pgw.ppp[0].queue queueBitLength:timeavg 0
scalar SingleCell_withSecondaryGnb.pgw.ppp[0].queue outgoingPackets:count 19000
scalar SingleCell_withSecondaryGnb.pgw.ppp[0].queue outgoingPacketLengths:sum 465728000
scalar SingleCell_withSecondaryGnb.pgw.ppp[0].queue incomingPackets:count 19000
scalar SingleCell_withSecondaryGnb.pgw.ppp[0].queue incomingPacketLengths:sum 465728000
scalar SingleCell_withSecondaryGnb.pgw.ppp[0].queue droppedPacketsQueueOverflow:count 0
scalar SingleCell_withSecondaryGnb.pgw.ppp[0].queue droppedPacketLengthsQueueOverflow:sum 0
scalar SingleCell_withSecondaryGnb.pgw.ppp[0].ppp transmissionState:timeavg 0.0024568006408381194
scalar SingleCell_withSecondaryGnb.pgw.ppp[0].ppp rxPkOk:count 0
scalar SingleCell_withSecondaryGnb.pgw.ppp[0].ppp rxPkOk:sum(packetBytes) 0
scalar SingleCell_withSecondaryGnb.pgw.ppp[0].ppp txPk:count 19000
scalar SingleCell_withSecondaryGnb.pgw.ppp[0].ppp txPk:sum(packetBytes) 58349000
scalar SingleCell_withSecondaryGnb.pgw.ppp[0].ppp rcvdPkFromHl:count 19000
scalar SingleCell_withSecondaryGnb.pgw.ppp[0].ppp rcvdPkFromHl:sum(packetBytes) 58216000
scalar SingleCell_withSecondaryGnb.pgw.ppp[0].ppp passedUpPk:count 0
scalar SingleCell_withSecondaryGnb.pgw.ppp[0].ppp passedUpPk:sum(packetBytes) 0
scalar SingleCell_withSecondaryGnb.pgw.ppp[0].ppp packetDropIncorrectlyReceived:count 0
scalar SingleCell_withSecondaryGnb.pgw.ppp[0].ppp packetDropIncorrectlyReceived:sum(packetBytes) 0
scalar SingleCell_withSecondaryGnb.pgw.ppp[0].ppp packetDropInterfaceDown:count 0
scalar SingleCell_withSecondaryGnb.pgw.ppp[0].ppp packetDropInterfaceDown:sum(packetBytes) 0
scalar SingleCell_withSecondaryGnb.pgw.ppp[0] packetDropInterfaceDown:count 0
scalar SingleCell_withSecondaryGnb.pgw.ppp[0] packetDropInterfaceDown:sum(packetBytes) 0
scalar SingleCell_withSecondaryGnb.pgw.ppp[0] packetDropNoCarrier:count 0
scalar SingleCell_withSecondaryGnb.pgw.ppp[0] packetDropNoCarrier:sum(packetBytes) 0
scalar SingleCell_withSecondaryGnb.pgw.ipv4.ip packetDropAddressResolutionFailed:count 0
scalar SingleCell_withSecondaryGnb.pgw.ipv4.ip packetDropAddressResolutionFailed:sum(packetBytes) 0
scalar SingleCell_withSecondaryGnb.pgw.ipv4.ip packetDropHopLimitReached:count 0
scalar SingleCell_withSecondaryGnb.pgw.ipv4.ip packetDropHopLimitReached:sum(packetBytes) 0
scalar SingleCell_withSecondaryGnb.pgw.ipv4.ip packetDropForwardingDisabled:count 0
scalar SingleCell_withSecondaryGnb.pgw.ipv4.ip packetDropForwardingDisabled:sum(packetBytes) 0
scalar SingleCell_withSecondaryGnb.pgw.ipv4.ip packetDropNoInterfaceFound:count 0
scalar SingleCell_withSecondaryGnb.pgw.ipv4.ip packetDropNoInterfaceFound:sum(packetBytes) 0
scalar SingleCell_withSecondaryGnb.pgw.ipv4.ip packetDropNoRouteFound:count 0
scalar SingleCell_withSecondaryGnb.pgw.ipv4.ip packetDropNoRouteFound:sum(packetBytes) 0
scalar SingleCell_withSecondaryGnb.pgw.ipv4.ip packetDropUndefined:count 0
scalar SingleCell_withSecondaryGnb.pgw.ipv4.ip packetDropUndefined:sum(packetBytes) 0
scalar SingleCell_withSecondaryGnb.pgw.ipv4.arp arpResolutionFailed:count 0
scalar SingleCell_withSecondaryGnb.pgw.ipv4.arp arpResolutionCompleted:count 0
scalar SingleCell_withSecondaryGnb.pgw.ipv4.arp arpResolutionInitiated:count 0
scalar SingleCell_withSecondaryGnb.pgw.ipv4.arp arpReplySent:count 0
scalar SingleCell_withSecondaryGnb.pgw.ipv4.arp arpReplySent:sum(packetBytes) 0
scalar SingleCell_withSecondaryGnb.pgw.ipv4.arp arpRequestSent:count 0
scalar SingleCell_withSecondaryGnb.pgw.ipv4.arp arpRequestSent:sum(packetBytes) 0
scalar SingleCell_withSecondaryGnb.pgw.pppIf.queue queueLength:last 0
scalar SingleCell_withSecondaryGnb.pgw.pppIf.queue queueLength:max 0
scalar SingleCell_withSecondaryGnb.pgw.pppIf.queue queueLength:timeavg 0
scalar SingleCell_withSecondaryGnb.pgw.pppIf.queue queueBitLength:last 0
scalar SingleCell_withSecondaryGnb.pgw.pppIf.queue queueBitLength:max 0
scalar SingleCell_withSecondaryGnb.pgw.pppIf.queue queueBitLength:timeavg 0
scalar SingleCell_withSecondaryGnb.pgw.pppIf.queue outgoingPackets:count 0
scalar SingleCell_withSecondaryGnb.pgw.pppIf.queue outgoingPacketLengths:sum 0
scalar SingleCell_withSecondaryGnb.pgw.pppIf.queue incomingPackets:count 0
scalar SingleCell_withSecondaryGnb.pgw.pppIf.queue incomingPacketLengths:sum 0
scalar SingleCell_withSecondaryGnb.pgw.pppIf.queue droppedPacketsQueueOverflow:count 0
scalar SingleCell_withSecondaryGnb.pgw.pppIf.queue droppedPacketLengthsQueueOverflow:sum 0
scalar SingleCell_withSecondaryGnb.pgw.pppIf.ppp transmissionState:timeavg -nan
scalar SingleCell_withSecondaryGnb.pgw.pppIf.ppp rxPkOk:count 19000
scalar SingleCell_withSecondaryGnb.pgw.pppIf.ppp rxPkOk:sum(packetBytes) 57665000
scalar SingleCell_withSecondaryGnb.pgw.pppIf.ppp txPk:count 0
scalar SingleCell_withSecondaryGnb.pgw.pppIf.ppp txPk:sum(packetBytes) 0
scalar SingleCell_withSecondaryGnb.pgw.pppIf.ppp rcvdPkFromHl:count 0
scalar SingleCell_withSecondaryGnb.pgw.pppIf.ppp rcvdPkFromHl:sum(packetBytes) 0
scalar SingleCell_withSecondaryGnb.pgw.pppIf.ppp passedUpPk:count 19000
scalar SingleCell_withSecondaryGnb.pgw.pppIf.ppp passedUpPk:sum(packetBytes) 57532000
scalar SingleCell_withSecondaryGnb.pgw.pppIf.ppp packetDropIncorrectlyReceived:count 0
scalar SingleCell_withSecondaryGnb.pgw.pppIf.ppp packetDropIncorrectlyReceived:sum(packetBytes) 0
scalar SingleCell_withSecondaryGnb.pgw.pppIf.ppp packetDropInterfaceDown:count 0
scalar SingleCell_withSecondaryGnb.pgw.pppIf.ppp packetDropInterfaceDown:sum(packetBytes) 0
scalar SingleCell_withSecondaryGnb.pgw.pppIf packetDropInterfaceDown:count 0
scalar SingleCell_withSecondaryGnb.pgw.pppIf packetDropInterfaceDown:sum(packetBytes) 0
scalar SingleCell_withSecondaryGnb.pgw.pppIf packetDropNoCarrier:count 0
scalar SingleCell_withSecondaryGnb.pgw.pppIf packetDropNoCarrier:sum(packetBytes) 0
scalar SingleCell_withSecondaryGnb.pgw.udp packetReceived:count 0
scalar SingleCell_withSecondaryGnb.pgw.udp packetReceived:sum(packetBytes) 0
scalar SingleCell_withSecondaryGnb.pgw.udp packetSent:count 19000
scalar SingleCell_withSecondaryGnb.pgw.udp packetSent:sum(packetBytes) 57836000
scalar SingleCell_withSecondaryGnb.pgw.udp passedUpPk:count 0
scalar SingleCell_withSecondaryGnb.pgw.udp droppedPkWrongPort:count 0
scalar SingleCell_withSecondaryGnb.pgw.udp droppedPkBadChecksum:count 0
scalar SingleCell_withSecondaryGnb.masterEnb.cellularNic.pdcp sentPacketToLowerLayer:count 0
scalar SingleCell_withSecondaryGnb.masterEnb.cellularNic.pdcp sentPacketToLowerLayer:sum(packetBytes) 0
scalar SingleCell_withSecondaryGnb.masterEnb.cellularNic.pdcp sentPacketToUpperLayer:count 0
scalar SingleCell_withSecondaryGnb.masterEnb.cellularNic.pdcp sentPacketToUpperLayer:sum(packetBytes) 0
scalar SingleCell_withSecondaryGnb.masterEnb.cellularNic.pdcp receivedPacketFromLowerLayer:count 0
scalar SingleCell_withSecondaryGnb.masterEnb.cellularNic.pdcp receivedPacketFromLowerLayer:sum(packetBytes) 0
scalar SingleCell_withSecondaryGnb.masterEnb.cellularNic.pdcp receivedPacketFromUpperLayer:count 19000
scalar SingleCell_withSecondaryGnb.masterEnb.cellularNic.pdcp receivedPacketFromUpperLayer:sum(packetBytes) 57532000
scalar SingleCell_withSecondaryGnb.masterEnb.cellularNic.rlc.tm rlcPacketLossUl:mean -nan
scalar SingleCell_withSecondaryGnb.masterEnb.cellularNic.rlc.tm rlcPacketLossUl:sum 0
scalar SingleCell_withSecondaryGnb.masterEnb.cellularNic.rlc.tm rlcPacketLossDl:mean -nan
scalar SingleCell_withSecondaryGnb.masterEnb.cellularNic.rlc.tm rlcPacketLossDl:sum 0
scalar SingleCell_withSecondaryGnb.masterEnb.cellularNic.rlc.tm sentPacketToLowerLayer:count 0
scalar SingleCell_withSecondaryGnb.masterEnb.cellularNic.rlc.tm sentPacketToLowerLayer:sum(packetBytes) 0
scalar SingleCell_withSecondaryGnb.masterEnb.cellularNic.rlc.tm sentPacketToUpperLayer:count 0
scalar SingleCell_withSecondaryGnb.masterEnb.cellularNic.rlc.tm sentPacketToUpperLayer:sum(packetBytes) 0
scalar SingleCell_withSecondaryGnb.masterEnb.cellularNic.rlc.tm receivedPacketFromLowerLayer:count 0
scalar SingleCell_withSecondaryGnb.masterEnb.cellularNic.rlc.tm receivedPacketFromLowerLayer:sum(packetBytes) 0
scalar SingleCell_withSecondaryGnb.masterEnb.cellularNic.rlc.tm receivedPacketFromUpperLayer:count 0
scalar SingleCell_withSecondaryGnb.masterEnb.cellularNic.rlc.tm receivedPacketFromUpperLayer:sum(packetBytes) 0
scalar SingleCell_withSecondaryGnb.masterEnb.cellularNic.rlc.um rlcCellThroughputD2D:simu5g_rateavg -nan
scalar SingleCell_withSecondaryGnb.masterEnb.cellularNic.rlc.um rlcPduThroughputD2D:simu5g_rateavg -nan
scalar SingleCell_withSecondaryGnb.masterEnb.cellularNic.rlc.um rlcPduDelayD2D:mean -nan
scalar SingleCell_withSecondaryGnb.masterEnb.cellularNic.rlc.um rlcThroughputD2D:simu5g_rateavg -nan
scalar SingleCell_withSecondaryGnb.masterEnb.cellularNic.rlc.um rlcDelayD2D:mean -nan
scalar SingleCell_withSecondaryGnb.masterEnb.cellularNic.rlc.um rlcCellThroughputUl:simu5g_rateavg -nan
scalar SingleCell_withSecondaryGnb.masterEnb.cellularNic.rlc.um rlcCellThroughputDl:simu5g_rateavg -nan
scalar SingleCell_withSecondaryGnb.masterEnb.cellularNic.rlc.um rlcPduThroughputUl:simu5g_rateavg -nan
scalar SingleCell_withSecondaryGnb.masterEnb.cellularNic.rlc.um rlcPduThroughputDl:simu5g_rateavg -nan
scalar SingleCell_withSecondaryGnb.masterEnb.cellularNic.rlc.um rlcPduDelayUl:mean -nan
scalar SingleCell_withSecondaryGnb.masterEnb.cellularNic.rlc.um rlcPduDelayDl:mean -nan
scalar SingleCell_withSecondaryGnb.masterEnb.cellularNic.rlc.um rlcThroughputUl:simu5g_rateavg -nan
scalar SingleCell_withSecondaryGnb.masterEnb.cellularNic.rlc.um rlcThroughputDl:simu5g_rateavg -nan
scalar SingleCell_withSecondaryGnb.masterEnb.cellularNic.rlc.um rlcDelayUl:mean -nan
scalar SingleCell_withSecondaryGnb.masterEnb.cellularNic.rlc.um rlcDelayDl:mean -nan
scalar SingleCell_withSecondaryGnb.masterEnb.cellularNic.rlc.um sentPacketToLowerLayer:count 0
scalar SingleCell_withSecondaryGnb.masterEnb.cellularNic.rlc.um sentPacketToLowerLayer:sum(packetBytes) 0
scalar SingleCell_withSecondaryGnb.masterEnb.cellularNic.rlc.um sentPacketToUpperLayer:count 0
scalar SingleCell_withSecondaryGnb.masterEnb.cellularNic.rlc.um sentPacketToUpperLayer:sum(packetBytes) 0
scalar SingleCell_withSecondaryGnb.masterEnb.cellularNic.rlc.um receivedPacketFromLowerLayer:count 0
scalar SingleCell_withSecondaryGnb.masterEnb.cellularNic.rlc.um receivedPacketFromLowerLayer:sum(packetBytes) 0
scalar SingleCell_withSecondaryGnb.masterEnb.cellularNic.rlc.um receivedPacketFromUpperLayer:count 0
scalar SingleCell_withSecondaryGnb.masterEnb.cellularNic.rlc.um receivedPacketFromUpperLayer:sum(packetBytes) 0
scalar SingleCell_withSecondaryGnb.masterEnb.cellularNic.rlc.am rlcPacketLossTotal:mean -nan
scalar SingleCell_withSecondaryGnb.masterEnb.cellularNic.rlc.am rlcCellThroughputUl:simu5g_rateavg -nan
scalar SingleCell_withSecondaryGnb.masterEnb.cellularNic.rlc.am rlcCellThroughputDl:simu5g_rateavg -nan
scalar SingleCell_withSecondaryGnb.masterEnb.cellularNic.rlc.am rlcPduThroughputUl:simu5g_rateavg -nan
scalar SingleCell_withSecondaryGnb.masterEnb.cellularNic.rlc.am rlcPduThroughputDl:simu5g_rateavg -nan
scalar SingleCell_withSecondaryGnb.masterEnb.cellularNic.rlc.am rlcPduDelayUl:mean -nan
scalar SingleCell_withSecondaryGnb.masterEnb.cellularNic.rlc.am rlcPduDelayDl:mean -nan
scalar SingleCell_withSecondaryGnb.masterEnb.cellularNic.rlc.am rlcThroughputUl:simu5g_rateavg -nan
scalar SingleCell_withSecondaryGnb.masterEnb.cellularNic.rlc.am rlcThroughputDl:simu5g_rateavg -nan
scalar SingleCell_withSecondaryGnb.masterEnb.cellularNic.rlc.am rlcDelayUl:mean -nan
scalar SingleCell_withSecondaryGnb.masterEnb.cellularNic.rlc.am rlcDelayDl:mean -nan
scalar SingleCell_withSecondaryGnb.masterEnb.cellularNic.rlc.am rlcPduPacketLossUl:mean -nan
scalar SingleCell_withSecondaryGnb.masterEnb.cellularNic.rlc.am rlcPduPacketLossDl:mean -nan
scalar SingleCell_withSecondaryGnb.masterEnb.cellularNic.rlc.am rlcPacketLossUl:mean -nan
scalar SingleCell_withSecondaryGnb.masterEnb.cellularNic.rlc.am rlcPacketLossDl:mean -nan
scalar SingleCell_withSecondaryGnb.masterEnb.cellularNic.rlc.am rlcCellPacketLossUl:mean -nan
scalar SingleCell_withSecondaryGnb.masterEnb.cellularNic.rlc.am rlcCellPacketLossDl:mean -nan
scalar SingleCell_withSecondaryGnb.masterEnb.cellularNic.mac avgServedBlocksUl:mean 0
scalar SingleCell_withSecondaryGnb.masterEnb.cellularNic.mac avgServedBlocksDl:mean 0
scalar SingleCell_withSecondaryGnb.masterEnb.cellularNic.mac macCellPacketLossD2D:mean -nan
scalar SingleCell_withSecondaryGnb.masterEnb.cellularNic.mac macCellThroughputD2D:simu5g_rateavg -nan
scalar SingleCell_withSecondaryGnb.masterEnb.cellularNic.mac harqTxAttemptsUl:mean -nan
scalar SingleCell_withSecondaryGnb.masterEnb.cellularNic.mac harqTxAttemptsDl:mean -nan
scalar SingleCell_withSecondaryGnb.masterEnb.cellularNic.mac harqErrorRate_4th_Ul:mean -nan
scalar SingleCell_withSecondaryGnb.masterEnb.cellularNic.mac harqErrorRate_4th_Dl:mean -nan
scalar SingleCell_withSecondaryGnb.masterEnb.cellularNic.mac harqErrorRate_3rd_Ul:mean -nan
scalar SingleCell_withSecondaryGnb.masterEnb.cellularNic.mac harqErrorRate_3rd_Dl:mean -nan
scalar SingleCell_withSecondaryGnb.masterEnb.cellularNic.mac harqErrorRate_2nd_Ul:mean -nan
scalar SingleCell_withSecondaryGnb.masterEnb.cellularNic.mac harqErrorRate_2nd_Dl:mean -nan
scalar SingleCell_withSecondaryGnb.masterEnb.cellularNic.mac harqErrorRate_1st_Ul:mean -nan
scalar SingleCell_withSecondaryGnb.masterEnb.cellularNic.mac harqErrorRate_1st_Dl:mean -nan
scalar SingleCell_withSecondaryGnb.masterEnb.cellularNic.mac harqErrorRateUl:mean -nan
scalar SingleCell_withSecondaryGnb.masterEnb.cellularNic.mac harqErrorRateDl:mean -nan
scalar SingleCell_withSecondaryGnb.masterEnb.cellularNic.mac macCellPacketLossUl:mean -nan
scalar SingleCell_withSecondaryGnb.masterEnb.cellularNic.mac macCellPacketLossDl:mean -nan
scalar SingleCell_withSecondaryGnb.masterEnb.cellularNic.mac macPacketLossUl:mean -nan
scalar SingleCell_withSecondaryGnb.masterEnb.cellularNic.mac macPacketLossDl:mean -nan
scalar SingleCell_withSecondaryGnb.masterEnb.cellularNic.mac macThroughputUl:simu5g_rateavg -nan
scalar SingleCell_withSecondaryGnb.masterEnb.cellularNic.mac macThroughputDl:simu5g_rateavg -nan
scalar SingleCell_withSecondaryGnb.masterEnb.cellularNic.mac macDelayUl:mean -nan
scalar SingleCell_withSecondaryGnb.masterEnb.cellularNic.mac macDelayDl:mean -nan
scalar SingleCell_withSecondaryGnb.masterEnb.cellularNic.mac macCellThroughputUl:simu5g_rateavg -nan
scalar SingleCell_withSecondaryGnb.masterEnb.cellularNic.mac macCellThroughputDl:simu5g_rateavg -nan
scalar SingleCell_withSecondaryGnb.masterEnb.cellularNic.mac sentPacketToLowerLayer:count 0
scalar SingleCell_withSecondaryGnb.masterEnb.cellularNic.mac sentPacketToLowerLayer:sum(packetBytes) 0
scalar SingleCell_withSecondaryGnb.masterEnb.cellularNic.mac sentPacketToUpperLayer:count 0
scalar SingleCell_withSecondaryGnb.masterEnb.cellularNic.mac sentPacketToUpperLayer:sum(packetBytes) 0
scalar SingleCell_withSecondaryGnb.masterEnb.cellularNic.mac receivedPacketFromLowerLayer:count 1900
scalar SingleCell_withSecondaryGnb.masterEnb.cellularNic.mac receivedPacketFromLowerLayer:sum(packetBytes) 1900
scalar SingleCell_withSecondaryGnb.masterEnb.cellularNic.mac receivedPacketFromUpperLayer:count 0
scalar SingleCell_withSecondaryGnb.masterEnb.cellularNic.mac receivedPacketFromUpperLayer:sum(packetBytes) 0
scalar SingleCell_withSecondaryGnb.masterEnb.cellularNic.mac macBufferOverFlowD2D:mean -nan
scalar SingleCell_withSecondaryGnb.masterEnb.cellularNic.mac macBufferOverFlowUl:mean -nan
scalar SingleCell_withSecondaryGnb.masterEnb.cellularNic.mac macBufferOverFlowDl:mean -nan
scalar SingleCell_withSecondaryGnb.masterEnb.cellularNic.channelModel[0] measuredSinrUl:mean -nan
scalar SingleCell_withSecondaryGnb.masterEnb.cellularNic.channelModel[0] measuredSinrDl:mean -nan
scalar SingleCell_withSecondaryGnb.masterEnb.cellularNic.channelModel[0] rcvdSinrD2D:mean -nan
scalar SingleCell_withSecondaryGnb.masterEnb.cellularNic.channelModel[0] rcvdSinrUl:mean -nan
scalar SingleCell_withSecondaryGnb.masterEnb.cellularNic.channelModel[0] rcvdSinrDl:mean -nan
scalar SingleCell_withSecondaryGnb.masterEnb.cellularNic packetDropInterfaceDown:count 0
scalar SingleCell_withSecondaryGnb.masterEnb.cellularNic packetDropInterfaceDown:sum(packetBytes) 0
scalar SingleCell_withSecondaryGnb.masterEnb.cellularNic packetDropNoCarrier:count 0
scalar SingleCell_withSecondaryGnb.masterEnb.cellularNic packetDropNoCarrier:sum(packetBytes) 0
scalar SingleCell_withSecondaryGnb.masterEnb.pppIf.queue queueLength:last 0
scalar SingleCell_withSecondaryGnb.masterEnb.pppIf.queue queueLength:max 0
scalar SingleCell_withSecondaryGnb.masterEnb.pppIf.queue queueLength:timeavg 0
scalar SingleCell_withSecondaryGnb.masterEnb.pppIf.queue queueBitLength:last 0
scalar SingleCell_withSecondaryGnb.masterEnb.pppIf.queue queueBitLength:max 0
scalar SingleCell_withSecondaryGnb.masterEnb.pppIf.queue queueBitLength:timeavg 0
scalar SingleCell_withSecondaryGnb.masterEnb.pppIf.queue outgoingPackets:count 0
scalar SingleCell_withSecondaryGnb.masterEnb.pppIf.queue outgoingPacketLengths:sum 0
scalar SingleCell_withSecondaryGnb.masterEnb.pppIf.queue incomingPackets:count 0
scalar SingleCell_withSecondaryGnb.masterEnb.pppIf.queue incomingPacketLengths:sum 0
scalar SingleCell_withSecondaryGnb.masterEnb.pppIf.queue droppedPacketsQueueOverflow:count 0
scalar SingleCell_withSecondaryGnb.masterEnb.pppIf.queue droppedPacketLengthsQueueOverflow:sum 0
scalar SingleCell_withSecondaryGnb.masterEnb.pppIf.ppp transmissionState:timeavg -nan
scalar SingleCell_withSecondaryGnb.masterEnb.pppIf.ppp rxPkOk:count 19000
scalar SingleCell_withSecondaryGnb.masterEnb.pppIf.ppp rxPkOk:sum(packetBytes) 58349000
scalar SingleCell_withSecondaryGnb.masterEnb.pppIf.ppp txPk:count 0
scalar SingleCell_withSecondaryGnb.masterEnb.pppIf.ppp txPk:sum(packetBytes) 0
scalar SingleCell_withSecondaryGnb.masterEnb.pppIf.ppp rcvdPkFromHl:count 0
scalar SingleCell_withSecondaryGnb.masterEnb.pppIf.ppp rcvdPkFromHl:sum(packetBytes) 0
scalar SingleCell_withSecondaryGnb.masterEnb.pppIf.ppp passedUpPk:count 19000
scalar SingleCell_withSecondaryGnb.masterEnb.pppIf.ppp passedUpPk:sum(packetBytes) 58216000
scalar SingleCell_withSecondaryGnb.masterEnb.pppIf.ppp packetDropIncorrectlyReceived:count 0
scalar SingleCell_withSecondaryGnb.masterEnb.pppIf.ppp packetDropIncorrectlyReceived:sum(packetBytes) 0
scalar SingleCell_withSecondaryGnb.masterEnb.pppIf.ppp packetDropInterfaceDown:count 0
scalar SingleCell_withSecondaryGnb.masterEnb.pppIf.ppp packetDropInterfaceDown:sum(packetBytes) 0
scalar SingleCell_withSecondaryGnb.masterEnb.pppIf packetDropInterfaceDown:count 0
scalar SingleCell_withSecondaryGnb.masterEnb.pppIf packetDropInterfaceDown:sum(packetBytes) 0
scalar SingleCell_withSecondaryGnb.masterEnb.pppIf packetDropNoCarrier:count 0
scalar SingleCell_withSecondaryGnb.masterEnb.pppIf packetDropNoCarrier:sum(packetBytes) 0
scalar SingleCell_withSecondaryGnb.masterEnb.x2ppp[0].queue queueLength:last 0
scalar SingleCell_withSecondaryGnb.masterEnb.x2ppp[0].queue queueLength:max 0
scalar SingleCell_withSecondaryGnb.masterEnb.x2ppp[0].queue queueLength:timeavg 0
scalar SingleCell_withSecondaryGnb.masterEnb.x2ppp[0].queue queueBitLength:last 0
scalar SingleCell_withSecondaryGnb.masterEnb.x2ppp[0].queue queueBitLength:max 0
scalar SingleCell_withSecondaryGnb.masterEnb.x2ppp[0].queue queueBitLength:timeavg 0
scalar SingleCell_withSecondaryGnb.masterEnb.x2ppp[0].queue outgoingPackets:count 19000
scalar SingleCell_withSecondaryGnb.masterEnb.x2ppp[0].queue outgoingPacketLengths:sum 467552000
scalar SingleCell_withSecondaryGnb.masterEnb.x2ppp[0].queue incomingPackets:count 19000
scalar SingleCell_withSecondaryGnb.masterEnb.x2ppp[0].queue incomingPacketLengths:sum 467552000
scalar SingleCell_withSecondaryGnb.masterEnb.x2ppp[0].queue droppedPacketsQueueOverflow:count 0
scalar SingleCell_withSecondaryGnb.masterEnb.x2ppp[0].queue droppedPacketLengthsQueueOverflow:sum 0
scalar SingleCell_withSecondaryGnb.masterEnb.x2ppp[0].ppp transmissionState:timeavg 0.0024664009687501215
scalar SingleCell_withSecondaryGnb.masterEnb.x2ppp[0].ppp rxPkOk:count 0
scalar SingleCell_withSecondaryGnb.masterEnb.x2ppp[0].ppp rxPkOk:sum(packetBytes) 0
scalar SingleCell_withSecondaryGnb.masterEnb.x2ppp[0].ppp txPk:count 19000
scalar SingleCell_withSecondaryGnb.masterEnb.x2ppp[0].ppp txPk:sum(packetBytes) 58577000
scalar SingleCell_withSecondaryGnb.masterEnb.x2ppp[0].ppp rcvdPkFromHl:count 19000
scalar SingleCell_withSecondaryGnb.masterEnb.x2ppp[0].ppp rcvdPkFromHl:sum(packetBytes) 58444000
scalar SingleCell_withSecondaryGnb.masterEnb.x2ppp[0].ppp passedUpPk:count 0
scalar SingleCell_withSecondaryGnb.masterEnb.x2ppp[0].ppp passedUpPk:sum(packetBytes) 0
scalar SingleCell_withSecondaryGnb.masterEnb.x2ppp[0].ppp packetDropIncorrectlyReceived:count 0
scalar SingleCell_withSecondaryGnb.masterEnb.x2ppp[0].ppp packetDropIncorrectlyReceived:sum(packetBytes) 0
scalar SingleCell_withSecondaryGnb.masterEnb.x2ppp[0].ppp packetDropInterfaceDown:count 0
scalar SingleCell_withSecondaryGnb.masterEnb.x2ppp[0].ppp packetDropInterfaceDown:sum(packetBytes) 0
scalar SingleCell_withSecondaryGnb.masterEnb.x2ppp[0] packetDropInterfaceDown:count 0
scalar SingleCell_withSecondaryGnb.masterEnb.x2ppp[0] packetDropInterfaceDown:sum(packetBytes) 0
scalar SingleCell_withSecondaryGnb.masterEnb.x2ppp[0] packetDropNoCarrier:count 0
scalar SingleCell_withSecondaryGnb.masterEnb.x2ppp[0] packetDropNoCarrier:sum(packetBytes) 0
scalar SingleCell_withSecondaryGnb.masterEnb.pppMEHostIf.queue queueLength:last 0
scalar SingleCell_withSecondaryGnb.masterEnb.pppMEHostIf.queue queueLength:max 0
scalar SingleCell_withSecondaryGnb.masterEnb.pppMEHostIf.queue queueLength:timeavg 0
scalar SingleCell_withSecondaryGnb.masterEnb.pppMEHostIf.queue queueBitLength:last 0
scalar SingleCell_withSecondaryGnb.masterEnb.pppMEHostIf.queue queueBitLength:max 0
scalar SingleCell_withSecondaryGnb.masterEnb.pppMEHostIf.queue queueBitLength:timeavg 0
scalar SingleCell_withSecondaryGnb.masterEnb.pppMEHostIf.queue outgoingPackets:count 0
scalar SingleCell_withSecondaryGnb.masterEnb.pppMEHostIf.queue outgoingPacketLengths:sum 0
scalar SingleCell_withSecondaryGnb.masterEnb.pppMEHostIf.queue incomingPackets:count 0
scalar SingleCell_withSecondaryGnb.masterEnb.pppMEHostIf.queue incomingPacketLengths:sum 0
scalar SingleCell_withSecondaryGnb.masterEnb.pppMEHostIf.queue droppedPacketsQueueOverflow:count 0
scalar SingleCell_withSecondaryGnb.masterEnb.pppMEHostIf.queue droppedPacketLengthsQueueOverflow:sum 0
scalar SingleCell_withSecondaryGnb.masterEnb.pppMEHostIf.ppp transmissionState:timeavg -nan
scalar SingleCell_withSecondaryGnb.masterEnb.pppMEHostIf.ppp rxPkOk:count 0
scalar SingleCell_withSecondaryGnb.masterEnb.pppMEHostIf.ppp rxPkOk:sum(packetBytes) 0
scalar SingleCell_withSecondaryGnb.masterEnb.pppMEHostIf.ppp txPk:count 0
scalar SingleCell_withSecondaryGnb.masterEnb.pppMEHostIf.ppp txPk:sum(packetBytes) 0
scalar SingleCell_withSecondaryGnb.masterEnb.pppMEHostIf.ppp rcvdPkFromHl:count 0
scalar SingleCell_withSecondaryGnb.masterEnb.pppMEHostIf.ppp rcvdPkFromHl:sum(packetBytes) 0
scalar SingleCell_withSecondaryGnb.masterEnb.pppMEHostIf.ppp passedUpPk:count 0
scalar SingleCell_withSecondaryGnb.masterEnb.pppMEHostIf.ppp passedUpPk:sum(packetBytes) 0
scalar SingleCell_withSecondaryGnb.masterEnb.pppMEHostIf.ppp packetDropIncorrectlyReceived:count 0
scalar SingleCell_withSecondaryGnb.masterEnb.pppMEHostIf.ppp packetDropIncorrectlyReceived:sum(packetBytes) 0
scalar SingleCell_withSecondaryGnb.masterEnb.pppMEHostIf.ppp packetDropInterfaceDown:count 0
scalar SingleCell_withSecondaryGnb.masterEnb.pppMEHostIf.ppp packetDropInterfaceDown:sum(packetBytes) 0
scalar SingleCell_withSecondaryGnb.masterEnb.pppMEHostIf packetDropInterfaceDown:count 0
scalar SingleCell_withSecondaryGnb.masterEnb.pppMEHostIf packetDropInterfaceDown:sum(packetBytes) 0
scalar SingleCell_withSecondaryGnb.masterEnb.pppMEHostIf packetDropNoCarrier:count 0
scalar SingleCell_withSecondaryGnb.masterEnb.pppMEHostIf packetDropNoCarrier:sum(packetBytes) 0
scalar SingleCell_withSecondaryGnb.masterEnb.ipv4.ip packetDropAddressResolutionFailed:count 0
scalar SingleCell_withSecondaryGnb.masterEnb.ipv4.ip packetDropAddressResolutionFailed:sum(packetBytes) 0
scalar SingleCell_withSecondaryGnb.masterEnb.ipv4.ip packetDropHopLimitReached:count 0
scalar SingleCell_withSecondaryGnb.masterEnb.ipv4.ip packetDropHopLimitReached:sum(packetBytes) 0
scalar SingleCell_withSecondaryGnb.masterEnb.ipv4.ip packetDropForwardingDisabled:count 0
scalar SingleCell_withSecondaryGnb.masterEnb.ipv4.ip packetDropForwardingDisabled:sum(packetBytes) 0
scalar SingleCell_withSecondaryGnb.masterEnb.ipv4.ip packetDropNoInterfaceFound:count 0
scalar SingleCell_withSecondaryGnb.masterEnb.ipv4.ip packetDropNoInterfaceFound:sum(packetBytes) 0
scalar SingleCell_withSecondaryGnb.masterEnb.ipv4.ip packetDropNoRouteFound:count 0
scalar SingleCell_withSecondaryGnb.masterEnb.ipv4.ip packetDropNoRouteFound:sum(packetBytes) 0
scalar SingleCell_withSecondaryGnb.masterEnb.ipv4.ip packetDropUndefined:count 0
scalar SingleCell_withSecondaryGnb.masterEnb.ipv4.ip packetDropUndefined:sum(packetBytes) 0
scalar SingleCell_withSecondaryGnb.masterEnb.ipv4.arp arpResolutionFailed:count 0
scalar SingleCell_withSecondaryGnb.masterEnb.ipv4.arp arpResolutionCompleted:count 0
scalar SingleCell_withSecondaryGnb.masterEnb.ipv4.arp arpResolutionInitiated:count 0
scalar SingleCell_withSecondaryGnb.masterEnb.ipv4.arp arpReplySent:count 0
scalar SingleCell_withSecondaryGnb.masterEnb.ipv4.arp arpReplySent:sum(packetBytes) 0
scalar SingleCell_withSecondaryGnb.masterEnb.ipv4.arp arpRequestSent:count 0
scalar SingleCell_withSecondaryGnb.masterEnb.ipv4.arp arpRequestSent:sum(packetBytes) 0
scalar SingleCell_withSecondaryGnb.masterEnb.udp packetReceived:count 19000
scalar SingleCell_withSecondaryGnb.masterEnb.udp packetReceived:sum(packetBytes) 57836000
scalar SingleCell_withSecondaryGnb.masterEnb.udp packetSent:count 19000
scalar SingleCell_withSecondaryGnb.masterEnb.udp packetSent:sum(packetBytes) 58064000
scalar SingleCell_withSecondaryGnb.masterEnb.udp passedUpPk:count 19000
scalar SingleCell_withSecondaryGnb.masterEnb.udp droppedPkWrongPort:count 0
scalar SingleCell_withSecondaryGnb.masterEnb.udp droppedPkBadChecksum:count 0
scalar SingleCell_withSecondaryGnb.masterEnb.x2App[0].client packetReceived:count 0
scalar SingleCell_withSecondaryGnb.masterEnb.x2App[0].client packetReceived:sum(packetBytes) 0
scalar SingleCell_withSecondaryGnb.masterEnb.x2App[0].client packetSent:count 0
scalar SingleCell_withSecondaryGnb.masterEnb.x2App[0].client packetSent:sum(packetBytes) 0
scalar SingleCell_withSecondaryGnb.masterEnb.x2App[0].client echoedPk:count 0
scalar SingleCell_withSecondaryGnb.masterEnb.x2App[0].client echoedPk:sum(packetBytes) 0
scalar SingleCell_withSecondaryGnb.masterEnb.x2App[0].server "bytes rcvd" 0
scalar SingleCell_withSecondaryGnb.masterEnb.x2App[0].server throughput -nan
scalar SingleCell_withSecondaryGnb.secondaryGnb.cellularNic.pdcp sentPacketToLowerLayer:count 19000
scalar SingleCell_withSecondaryGnb.secondaryGnb.cellularNic.pdcp sentPacketToLowerLayer:sum(packetBytes) 57551000
scalar SingleCell_withSecondaryGnb.secondaryGnb.cellularNic.pdcp sentPacketToUpperLayer:count 0
scalar SingleCell_withSecondaryGnb.secondaryGnb.cellularNic.pdcp sentPacketToUpperLayer:sum(packetBytes) 0
scalar SingleCell_withSecondaryGnb.secondaryGnb.cellularNic.pdcp receivedPacketFromLowerLayer:count 0
scalar SingleCell_withSecondaryGnb.secondaryGnb.cellularNic.pdcp receivedPacketFromLowerLayer:sum(packetBytes) 0
scalar SingleCell_withSecondaryGnb.secondaryGnb.cellularNic.pdcp receivedPacketFromUpperLayer:count 0
scalar SingleCell_withSecondaryGnb.secondaryGnb.cellularNic.pdcp receivedPacketFromUpperLayer:sum(packetBytes) 0
scalar SingleCell_withSecondaryGnb.secondaryGnb.cellularNic.rlc.tm rlcPacketLossUl:mean -nan
scalar SingleCell_withSecondaryGnb.secondaryGnb.cellularNic.rlc.tm rlcPacketLossUl:sum 0
scalar SingleCell_withSecondaryGnb.secondaryGnb.cellularNic.rlc.tm rlcPacketLossDl:mean -nan
scalar SingleCell_withSecondaryGnb.secondaryGnb.cellularNic.rlc.tm rlcPacketLossDl:sum 0
scalar SingleCell_withSecondaryGnb.secondaryGnb.cellularNic.rlc.tm sentPacketToLowerLayer:count 0
scalar SingleCell_withSecondaryGnb.secondaryGnb.cellularNic.rlc.tm sentPacketToLowerLayer:sum(packetBytes) 0
scalar SingleCell_withSecondaryGnb.secondaryGnb.cellularNic.rlc.tm sentPacketToUpperLayer:count 0
scalar SingleCell_withSecondaryGnb.secondaryGnb.cellularNic.rlc.tm sentPacketToUpperLayer:sum(packetBytes) 0
scalar SingleCell_withSecondaryGnb.secondaryGnb.cellularNic.rlc.tm receivedPacketFromLowerLayer:count 0
scalar SingleCell_withSecondaryGnb.secondaryGnb.cellularNic.rlc.tm receivedPacketFromLowerLayer:sum(packetBytes) 0
scalar SingleCell_withSecondaryGnb.secondaryGnb.cellularNic.rlc.tm receivedPacketFromUpperLayer:count 0
scalar SingleCell_withSecondaryGnb.secondaryGnb.cellularNic.rlc.tm receivedPacketFromUpperLayer:sum(packetBytes) 0
scalar SingleCell_withSecondaryGnb.secondaryGnb.cellularNic.rlc.um rlcCellThroughputD2D:simu5g_rateavg -nan
scalar SingleCell_withSecondaryGnb.secondaryGnb.cellularNic.rlc.um rlcPduThroughputD2D:simu5g_rateavg -nan
scalar SingleCell_withSecondaryGnb.secondaryGnb.cellularNic.rlc.um rlcPduDelayD2D:mean -nan
scalar SingleCell_withSecondaryGnb.secondaryGnb.cellularNic.rlc.um rlcThroughputD2D:simu5g_rateavg -nan
scalar SingleCell_withSecondaryGnb.secondaryGnb.cellularNic.rlc.um rlcDelayD2D:mean -nan
scalar SingleCell_withSecondaryGnb.secondaryGnb.cellularNic.rlc.um rlcCellThroughputUl:simu5g_rateavg -nan
scalar SingleCell_withSecondaryGnb.secondaryGnb.cellularNic.rlc.um rlcCellThroughputDl:simu5g_rateavg 1186451.554989106
scalar SingleCell_withSecondaryGnb.secondaryGnb.cellularNic.rlc.um rlcPduThroughputUl:simu5g_rateavg -nan
scalar SingleCell_withSecondaryGnb.secondaryGnb.cellularNic.rlc.um rlcPduThroughputDl:simu5g_rateavg -nan
scalar SingleCell_withSecondaryGnb.secondaryGnb.cellularNic.rlc.um rlcPduDelayUl:mean -nan
scalar SingleCell_withSecondaryGnb.secondaryGnb.cellularNic.rlc.um rlcPduDelayDl:mean -nan
scalar SingleCell_withSecondaryGnb.secondaryGnb.cellularNic.rlc.um rlcThroughputUl:simu5g_rateavg -nan
scalar SingleCell_withSecondaryGnb.secondaryGnb.cellularNic.rlc.um rlcThroughputDl:simu5g_rateavg -nan
scalar SingleCell_withSecondaryGnb.secondaryGnb.cellularNic.rlc.um rlcDelayUl:mean -nan
scalar SingleCell_withSecondaryGnb.secondaryGnb.cellularNic.rlc.um rlcDelayDl:mean -nan
scalar SingleCell_withSecondaryGnb.secondaryGnb.cellularNic.rlc.um sentPacketToLowerLayer:count 19001
scalar SingleCell_withSecondaryGnb.secondaryGnb.cellularNic.rlc.um sentPacketToLowerLayer:sum(packetBytes) 16492868
scalar SingleCell_withSecondaryGnb.secondaryGnb.cellularNic.rlc.um sentPacketToUpperLayer:count 0
scalar SingleCell_withSecondaryGnb.secondaryGnb.cellularNic.rlc.um sentPacketToUpperLayer:sum(packetBytes) 0
scalar SingleCell_withSecondaryGnb.secondaryGnb.cellularNic.rlc.um receivedPacketFromLowerLayer:count 0
scalar SingleCell_withSecondaryGnb.secondaryGnb.cellularNic.rlc.um receivedPacketFromLowerLayer:sum(packetBytes) 0
scalar SingleCell_withSecondaryGnb.secondaryGnb.cellularNic.rlc.um receivedPacketFromUpperLayer:count 19000
scalar SingleCell_withSecondaryGnb.secondaryGnb.cellularNic.rlc.um receivedPacketFromUpperLayer:sum(packetBytes) 57551000
scalar SingleCell_withSecondaryGnb.secondaryGnb.cellularNic.rlc.am rlcPacketLossTotal:mean -nan
scalar SingleCell_withSecondaryGnb.secondaryGnb.cellularNic.rlc.am rlcCellThroughputUl:simu5g_rateavg -nan
scalar SingleCell_withSecondaryGnb.secondaryGnb.cellularNic.rlc.am rlcCellThroughputDl:simu5g_rateavg -nan
scalar SingleCell_withSecondaryGnb.secondaryGnb.cellularNic.rlc.am rlcPduThroughputUl:simu5g_rateavg -nan
scalar SingleCell_withSecondaryGnb.secondaryGnb.cellularNic.rlc.am rlcPduThroughputDl:simu5g_rateavg -nan
scalar SingleCell_withSecondaryGnb.secondaryGnb.cellularNic.rlc.am rlcPduDelayUl:mean -nan
scalar SingleCell_withSecondaryGnb.secondaryGnb.cellularNic.rlc.am rlcPduDelayDl:mean -nan
scalar SingleCell_withSecondaryGnb.secondaryGnb.cellularNic.rlc.am rlcThroughputUl:simu5g_rateavg -nan
scalar SingleCell_withSecondaryGnb.secondaryGnb.cellularNic.rlc.am rlcThroughputDl:simu5g_rateavg -nan
scalar SingleCell_withSecondaryGnb.secondaryGnb.cellularNic.rlc.am rlcDelayUl:mean -nan
scalar SingleCell_withSecondaryGnb.secondaryGnb.cellularNic.rlc.am rlcDelayDl:mean -nan
scalar SingleCell_withSecondaryGnb.secondaryGnb.cellularNic.rlc.am rlcPduPacketLossUl:mean -nan
scalar SingleCell_withSecondaryGnb.secondaryGnb.cellularNic.rlc.am rlcPduPacketLossDl:mean -nan
scalar SingleCell_withSecondaryGnb.secondaryGnb.cellularNic.rlc.am rlcPacketLossUl:mean -nan
scalar SingleCell_withSecondaryGnb.secondaryGnb.cellularNic.rlc.am rlcPacketLossDl:mean -nan
scalar SingleCell_withSecondaryGnb.secondaryGnb.cellularNic.rlc.am rlcCellPacketLossUl:mean -nan
scalar SingleCell_withSecondaryGnb.secondaryGnb.cellularNic.rlc.am rlcCellPacketLossDl:mean -nan
scalar SingleCell_withSecondaryGnb.secondaryGnb.cellularNic.mac avgServedBlocksUl:mean 0
scalar SingleCell_withSecondaryGnb.secondaryGnb.cellularNic.mac avgServedBlocksDl:mean 6
scalar SingleCell_withSecondaryGnb.secondaryGnb.cellularNic.mac macCellPacketLossD2D:mean -nan
scalar SingleCell_withSecondaryGnb.secondaryGnb.cellularNic.mac macCellThroughputD2D:simu5g_rateavg -nan
scalar SingleCell_withSecondaryGnb.secondaryGnb.cellularNic.mac harqTxAttemptsUl:mean -nan
scalar SingleCell_withSecondaryGnb.secondaryGnb.cellularNic.mac harqTxAttemptsDl:mean -nan
scalar SingleCell_withSecondaryGnb.secondaryGnb.cellularNic.mac harqErrorRate_4th_Ul:mean -nan
scalar SingleCell_withSecondaryGnb.secondaryGnb.cellularNic.mac harqErrorRate_4th_Dl:mean -nan
scalar SingleCell_withSecondaryGnb.secondaryGnb.cellularNic.mac harqErrorRate_3rd_Ul:mean -nan
scalar SingleCell_withSecondaryGnb.secondaryGnb.cellularNic.mac harqErrorRate_3rd_Dl:mean -nan
scalar SingleCell_withSecondaryGnb.secondaryGnb.cellularNic.mac harqErrorRate_2nd_Ul:mean -nan
scalar SingleCell_withSecondaryGnb.secondaryGnb.cellularNic.mac harqErrorRate_2nd_Dl:mean -nan
scalar SingleCell_withSecondaryGnb.secondaryGnb.cellularNic.mac harqErrorRate_1st_Ul:mean -nan
scalar SingleCell_withSecondaryGnb.secondaryGnb.cellularNic.mac harqErrorRate_1st_Dl:mean -nan
scalar SingleCell_withSecondaryGnb.secondaryGnb.cellularNic.mac harqErrorRateUl:mean -nan
scalar SingleCell_withSecondaryGnb.secondaryGnb.cellularNic.mac harqErrorRateDl:mean -nan
scalar SingleCell_withSecondaryGnb.secondaryGnb.cellularNic.mac macCellPacketLossUl:mean -nan
scalar SingleCell_withSecondaryGnb.secondaryGnb.cellularNic.mac macCellPacketLossDl:mean 0
scalar SingleCell_withSecondaryGnb.secondaryGnb.cellularNic.mac macPacketLossUl:mean -nan
scalar SingleCell_withSecondaryGnb.secondaryGnb.cellularNic.mac macPacketLossDl:mean -nan
scalar SingleCell_withSecondaryGnb.secondaryGnb.cellularNic.mac macThroughputUl:simu5g_rateavg -nan
scalar SingleCell_withSecondaryGnb.secondaryGnb.cellularNic.mac macThroughputDl:simu5g_rateavg -nan
scalar SingleCell_withSecondaryGnb.secondaryGnb.cellularNic.mac macDelayUl:mean -nan
scalar SingleCell_withSecondaryGnb.secondaryGnb.cellularNic.mac macDelayDl:mean -nan
scalar SingleCell_withSecondaryGnb.secondaryGnb.cellularNic.mac macCellThroughputUl:simu5g_rateavg -nan
scalar SingleCell_withSecondaryGnb.secondaryGnb.cellularNic.mac macCellThroughputDl:simu5g_rateavg 36503561.410707459
scalar SingleCell_withSecondaryGnb.secondaryGnb.cellularNic.mac sentPacketToLowerLayer:count 15834
scalar SingleCell_withSecondaryGnb.secondaryGnb.cellularNic.mac sentPacketToLowerLayer:sum(packetBytes) 13775580
scalar SingleCell_withSecondaryGnb.secondaryGnb.cellularNic.mac sentPacketToUpperLayer:count 19001
scalar SingleCell_withSecondaryGnb.secondaryGnb.cellularNic.mac sentPacketToUpperLayer:sum(packetBytes) 19001
scalar SingleCell_withSecondaryGnb.secondaryGnb.cellularNic.mac receivedPacketFromLowerLayer:count 17734
scalar SingleCell_withSecondaryGnb.secondaryGnb.cellularNic.mac receivedPacketFromLowerLayer:sum(packetBytes) 17734
scalar SingleCell_withSecondaryGnb.secondaryGnb.cellularNic.mac receivedPacketFromUpperLayer:count 24434
scalar SingleCell_withSecondaryGnb.secondaryGnb.cellularNic.mac receivedPacketFromUpperLayer:sum(packetBytes) 32949425
scalar SingleCell_withSecondaryGnb.secondaryGnb.cellularNic.mac macBufferOverFlowD2D:mean -nan
scalar SingleCell_withSecondaryGnb.secondaryGnb.cellularNic.mac macBufferOverFlowUl:mean -nan
scalar SingleCell_withSecondaryGnb.secondaryGnb.cellularNic.mac macBufferOverFlowDl:mean -nan
scalar SingleCell_withSecondaryGnb.secondaryGnb.cellularNic.channelModel[0] measuredSinrUl:mean -nan
scalar SingleCell_withSecondaryGnb.secondaryGnb.cellularNic.channelModel[0] measuredSinrDl:mean -nan
scalar SingleCell_withSecondaryGnb.secondaryGnb.cellularNic.channelModel[0] rcvdSinrD2D:mean -nan
scalar SingleCell_withSecondaryGnb.secondaryGnb.cellularNic.channelModel[0] rcvdSinrUl:mean -nan
scalar SingleCell_withSecondaryGnb.secondaryGnb.cellularNic.channelModel[0] rcvdSinrDl:mean -nan
scalar SingleCell_withSecondaryGnb.secondaryGnb.cellularNic packetDropInterfaceDown:count 0
scalar SingleCell_withSecondaryGnb.secondaryGnb.cellularNic packetDropInterfaceDown:sum(packetBytes) 0
scalar SingleCell_withSecondaryGnb.secondaryGnb.cellularNic packetDropNoCarrier:count 0
scalar SingleCell_withSecondaryGnb.secondaryGnb.cellularNic packetDropNoCarrier:sum(packetBytes) 0
scalar SingleCell_withSecondaryGnb.secondaryGnb.pppIf.queue queueLength:last 0
scalar SingleCell_withSecondaryGnb.secondaryGnb.pppIf.queue queueLength:max 0
scalar SingleCell_withSecondaryGnb.secondaryGnb.pppIf.queue queueLength:timeavg 0
scalar SingleCell_withSecondaryGnb.secondaryGnb.pppIf.queue queueBitLength:last 0
scalar SingleCell_withSecondaryGnb.secondaryGnb.pppIf.queue queueBitLength:max 0
scalar SingleCell_withSecondaryGnb.secondaryGnb.pppIf.queue queueBitLength:timeavg 0
scalar SingleCell_withSecondaryGnb.secondaryGnb.pppIf.queue outgoingPackets:count 0
scalar SingleCell_withSecondaryGnb.secondaryGnb.pppIf.queue outgoingPacketLengths:sum 0
scalar SingleCell_withSecondaryGnb.secondaryGnb.pppIf.queue incomingPackets:count 0
scalar SingleCell_withSecondaryGnb.secondaryGnb.pppIf.queue incomingPacketLengths:sum 0
scalar SingleCell_withSecondaryGnb.secondaryGnb.pppIf.queue droppedPacketsQueueOverflow:count 0
scalar SingleCell_withSecondaryGnb.secondaryGnb.pppIf.queue droppedPacketLengthsQueueOverflow:sum 0
scalar SingleCell_withSecondaryGnb.secondaryGnb.pppIf.ppp transmissionState:timeavg -nan
scalar SingleCell_withSecondaryGnb.secondaryGnb.pppIf.ppp rxPkOk:count 0
scalar SingleCell_withSecondaryGnb.secondaryGnb.pppIf.ppp rxPkOk:sum(packetBytes) 0
scalar SingleCell_withSecondaryGnb.secondaryGnb.pppIf.ppp txPk:count 0
scalar SingleCell_withSecondaryGnb.secondaryGnb.pppIf.ppp txPk:sum(packetBytes) 0
scalar SingleCell_withSecondaryGnb.secondaryGnb.pppIf.ppp rcvdPkFromHl:count 0
scalar SingleCell_withSecondaryGnb.secondaryGnb.pppIf.ppp rcvdPkFromHl:sum(packetBytes) 0
scalar SingleCell_withSecondaryGnb.secondaryGnb.pppIf.ppp passedUpPk:count 0
scalar SingleCell_withSecondaryGnb.secondaryGnb.pppIf.ppp passedUpPk:sum(packetBytes) 0
scalar SingleCell_withSecondaryGnb.secondaryGnb.pppIf.ppp packetDropIncorrectlyReceived:count 0
scalar SingleCell_withSecondaryGnb.secondaryGnb.pppIf.ppp packetDropIncorrectlyReceived:sum(packetBytes) 0
scalar SingleCell_withSecondaryGnb.secondaryGnb.pppIf.ppp packetDropInterfaceDown:count 0
scalar SingleCell_withSecondaryGnb.secondaryGnb.pppIf.ppp packetDropInterfaceDown:sum(packetBytes) 0
scalar SingleCell_withSecondaryGnb.secondaryGnb.pppIf packetDropInterfaceDown:count 0
scalar SingleCell_withSecondaryGnb.secondaryGnb.pppIf packetDropInterfaceDown:sum(packetBytes) 0
scalar SingleCell_withSecondaryGnb.secondaryGnb.pppIf packetDropNoCarrier:count 0
scalar SingleCell_withSecondaryGnb.secondaryGnb.pppIf packetDropNoCarrier:sum(packetBytes) 0
scalar SingleCell_withSecondaryGnb.secondaryGnb.x2ppp[0].queue queueLength:last 0
scalar SingleCell_withSecondaryGnb.secondaryGnb.x2ppp[0].queue queueLength:max 0
scalar SingleCell_withSecondaryGnb.secondaryGnb.x2ppp[0].queue queueLength:timeavg 0
scalar SingleCell_withSecondaryGnb.secondaryGnb.x2ppp[0].queue queueBitLength:last 0
scalar SingleCell_withSecondaryGnb.secondaryGnb.x2ppp[0].queue queueBitLength:max 0
scalar SingleCell_withSecondaryGnb.secondaryGnb.x2ppp[0].queue queueBitLength:timeavg 0
scalar SingleCell_withSecondaryGnb.secondaryGnb.x2ppp[0].queue outgoingPackets:count 0
scalar SingleCell_withSecondaryGnb.secondaryGnb.x2ppp[0].queue outgoingPacketLengths:sum 0
scalar SingleCell_withSecondaryGnb.secondaryGnb.x2ppp[0].queue incomingPackets:count 0
scalar SingleCell_withSecondaryGnb.secondaryGnb.x2ppp[0].queue incomingPacketLengths:sum 0
scalar SingleCell_withSecondaryGnb.secondaryGnb.x2ppp[0].queue droppedPacketsQueueOverflow:count 0
scalar SingleCell_withSecondaryGnb.secondaryGnb.x2ppp[0].queue droppedPacketLengthsQueueOverflow:sum 0
scalar SingleCell_withSecondaryGnb.secondaryGnb.x2ppp[0].ppp transmissionState:timeavg -nan
scalar SingleCell_withSecondaryGnb.secondaryGnb.x2ppp[0].ppp rxPkOk:count 19000
scalar SingleCell_withSecondaryGnb.secondaryGnb.x2ppp[0].ppp rxPkOk:sum(packetBytes) 58577000
scalar SingleCell_withSecondaryGnb.secondaryGnb.x2ppp[0].ppp txPk:count 0
scalar SingleCell_withSecondaryGnb.secondaryGnb.x2ppp[0].ppp txPk:sum(packetBytes) 0
scalar SingleCell_withSecondaryGnb.secondaryGnb.x2ppp[0].ppp rcvdPkFromHl:count 0
scalar SingleCell_withSecondaryGnb.secondaryGnb.x2ppp[0].ppp rcvdPkFromHl:sum(packetBytes) 0
scalar SingleCell_withSecondaryGnb.secondaryGnb.x2ppp[0].ppp passedUpPk:count 19000
scalar SingleCell_withSecondaryGnb.secondaryGnb.x2ppp[0].ppp passedUpPk:sum(packetBytes) 58444000
scalar SingleCell_withSecondaryGnb.secondaryGnb.x2ppp[0].ppp packetDropIncorrectlyReceived:count 0
scalar SingleCell_withSecondaryGnb.secondaryGnb.x2ppp[0].ppp packetDropIncorrectlyReceived:sum(packetBytes) 0
scalar SingleCell_withSecondaryGnb.secondaryGnb.x2ppp[0].ppp packetDropInterfaceDown:count 0
scalar SingleCell_withSecondaryGnb.secondaryGnb.x2ppp[0].ppp packetDropInterfaceDown:sum(packetBytes) 0
scalar SingleCell_withSecondaryGnb.secondaryGnb.x2ppp[0] packetDropInterfaceDown:count 0
scalar SingleCell_withSecondaryGnb.secondaryGnb.x2ppp[0] packetDropInterfaceDown:sum(packetBytes) 0
scalar SingleCell_withSecondaryGnb.secondaryGnb.x2ppp[0] packetDropNoCarrier:count 0
scalar SingleCell_withSecondaryGnb.secondaryGnb.x2ppp[0] packetDropNoCarrier:sum(packetBytes) 0
scalar SingleCell_withSecondaryGnb.secondaryGnb.pppMEHostIf.queue queueLength:last 0
scalar SingleCell_withSecondaryGnb.secondaryGnb.pppMEHostIf.queue queueLength:max 0
scalar SingleCell_withSecondaryGnb.secondaryGnb.pppMEHostIf.queue queueLength:timeavg 0
scalar SingleCell_withSecondaryGnb.secondaryGnb.pppMEHostIf.queue queueBitLength:last 0
scalar SingleCell_withSecondaryGnb.secondaryGnb.pppMEHostIf.queue queueBitLength:max 0
scalar SingleCell_withSecondaryGnb.secondaryGnb.pppMEHostIf.queue queueBitLength:timeavg 0
scalar SingleCell_withSecondaryGnb.secondaryGnb.pppMEHostIf.queue outgoingPackets:count 0
scalar SingleCell_withSecondaryGnb.secondaryGnb.pppMEHostIf.queue outgoingPacketLengths:sum 0
scalar SingleCell_withSecondaryGnb.secondaryGnb.pppMEHostIf.queue incomingPackets:count 0
scalar SingleCell_withSecondaryGnb.secondaryGnb.pppMEHostIf.queue incomingPacketLengths:sum 0
scalar SingleCell_withSecondaryGnb.secondaryGnb.pppMEHostIf.queue droppedPacketsQueueOverflow:count 0
scalar SingleCell_withSecondaryGnb.secondaryGnb.pppMEHostIf.queue droppedPacketLengthsQueueOverflow:sum 0
scalar SingleCell_withSecondaryGnb.secondaryGnb.pppMEHostIf.ppp transmissionState:timeavg -nan
scalar SingleCell_withSecondaryGnb.secondaryGnb.pppMEHostIf.ppp rxPkOk:count 0
scalar SingleCell_withSecondaryGnb.secondaryGnb.pppMEHostIf.ppp rxPkOk:sum(packetBytes) 0
scalar SingleCell_withSecondaryGnb.secondaryGnb.pppMEHostIf.ppp txPk:count 0
scalar SingleCell_withSecondaryGnb.secondaryGnb.pppMEHostIf.ppp txPk:sum(packetBytes) 0
scalar SingleCell_withSecondaryGnb.secondaryGnb.pppMEHostIf.ppp rcvdPkFromHl:count 0
scalar SingleCell_withSecondaryGnb.secondaryGnb.pppMEHostIf.ppp rcvdPkFromHl:sum(packetBytes) 0
scalar SingleCell_withSecondaryGnb.secondaryGnb.pppMEHostIf.ppp passedUpPk:count 0
scalar SingleCell_withSecondaryGnb.secondaryGnb.pppMEHostIf.ppp passedUpPk:sum(packetBytes) 0
scalar SingleCell_withSecondaryGnb.secondaryGnb.pppMEHostIf.ppp packetDropIncorrectlyReceived:count 0
scalar SingleCell_withSecondaryGnb.secondaryGnb.pppMEHostIf.ppp packetDropIncorrectlyReceived:sum(packetBytes) 0
scalar SingleCell_withSecondaryGnb.secondaryGnb.pppMEHostIf.ppp packetDropInterfaceDown:count 0
scalar SingleCell_withSecondaryGnb.secondaryGnb.pppMEHostIf.ppp packetDropInterfaceDown:sum(packetBytes) 0
scalar SingleCell_withSecondaryGnb.secondaryGnb.pppMEHostIf packetDropInterfaceDown:count 0
scalar SingleCell_withSecondaryGnb.secondaryGnb.pppMEHostIf packetDropInterfaceDown:sum(packetBytes) 0
scalar SingleCell_withSecondaryGnb.secondaryGnb.pppMEHostIf packetDropNoCarrier:count 0
scalar SingleCell_withSecondaryGnb.secondaryGnb.pppMEHostIf packetDropNoCarrier:sum(packetBytes) 0
scalar SingleCell_withSecondaryGnb.secondaryGnb.ipv4.ip packetDropAddressResolutionFailed:count 0
scalar SingleCell_withSecondaryGnb.secondaryGnb.ipv4.ip packetDropAddressResolutionFailed:sum(packetBytes) 0
scalar SingleCell_withSecondaryGnb.secondaryGnb.ipv4.ip packetDropHopLimitReached:count 0
scalar SingleCell_withSecondaryGnb.secondaryGnb.ipv4.ip packetDropHopLimitReached:sum(packetBytes) 0
scalar SingleCell_withSecondaryGnb.secondaryGnb.ipv4.ip packetDropForwardingDisabled:count 0
scalar SingleCell_withSecondaryGnb.secondaryGnb.ipv4.ip packetDropForwardingDisabled:sum(packetBytes) 0
scalar SingleCell_withSecondaryGnb.secondaryGnb.ipv4.ip packetDropNoInterfaceFound:count 0
scalar SingleCell_withSecondaryGnb.secondaryGnb.ipv4.ip packetDropNoInterfaceFound:sum(packetBytes) 0
scalar SingleCell_withSecondaryGnb.secondaryGnb.ipv4.ip packetDropNoRouteFound:count 0
scalar SingleCell_withSecondaryGnb.secondaryGnb.ipv4.ip packetDropNoRouteFound:sum(packetBytes) 0
scalar SingleCell_withSecondaryGnb.secondaryGnb.ipv4.ip packetDropUndefined:count 0
scalar SingleCell_withSecondaryGnb.secondaryGnb.ipv4.ip packetDropUndefined:sum(packetBytes) 0
scalar SingleCell_withSecondaryGnb.secondaryGnb.ipv4.arp arpResolutionFailed:count 0
scalar SingleCell_withSecondaryGnb.secondaryGnb.ipv4.arp arpResolutionCompleted:count 0
scalar SingleCell_withSecondaryGnb.secondaryGnb.ipv4.arp arpResolutionInitiated:count 0
scalar SingleCell_withSecondaryGnb.secondaryGnb.ipv4.arp arpReplySent:count 0
scalar SingleCell_withSecondaryGnb.secondaryGnb.ipv4.arp arpReplySent:sum(packetBytes) 0
scalar SingleCell_withSecondaryGnb.secondaryGnb.ipv4.arp arpRequestSent:count 0
scalar SingleCell_withSecondaryGnb.secondaryGnb.ipv4.arp arpRequestSent:sum(packetBytes) 0
scalar SingleCell_withSecondaryGnb.secondaryGnb.udp packetReceived:count 19000
scalar SingleCell_withSecondaryGnb.secondaryGnb.udp packetReceived:sum(packetBytes) 58064000
scalar SingleCell_withSecondaryGnb.secondaryGnb.udp packetSent:count 0
scalar SingleCell_withSecondaryGnb.secondaryGnb.udp packetSent:sum(packetBytes) 0
scalar SingleCell_withSecondaryGnb.secondaryGnb.udp passedUpPk:count 19000
scalar SingleCell_withSecondaryGnb.secondaryGnb.udp droppedPkWrongPort:count 0
scalar SingleCell_withSecondaryGnb.secondaryGnb.udp droppedPkBadChecksum:count 0
scalar SingleCell_withSecondaryGnb.secondaryGnb.x2App[0].client packetReceived:count 0
scalar SingleCell_withSecondaryGnb.secondaryGnb.x2App[0].client packetReceived:sum(packetBytes) 0
scalar SingleCell_withSecondaryGnb.secondaryGnb.x2App[0].client packetSent:count 0
scalar SingleCell_withSecondaryGnb.secondaryGnb.x2App[0].client packetSent:sum(packetBytes) 0
scalar SingleCell_withSecondaryGnb.secondaryGnb.x2App[0].client echoedPk:count 0
scalar SingleCell_withSecondaryGnb.secondaryGnb.x2App[0].client echoedPk:sum(packetBytes) 0
scalar SingleCell_withSecondaryGnb.secondaryGnb.x2App[0].server "bytes rcvd" 0
scalar SingleCell_withSecondaryGnb.secondaryGnb.x2App[0].server throughput -nan
scalar SingleCell_withSecondaryGnb.ue[0].lo[0].lo rcvdPkFromHl:count 0
scalar SingleCell_withSecondaryGnb.ue[0].lo[0].lo rcvdPkFromHl:sum(packetBytes) 0
scalar SingleCell_withSecondaryGnb.ue[0].lo[0].lo passedUpPk:count 0
scalar SingleCell_withSecondaryGnb.ue[0].lo[0].lo passedUpPk:sum(packetBytes) 0
scalar SingleCell_withSecondaryGnb.ue[0].lo[0] packetDropInterfaceDown:count 0
scalar SingleCell_withSecondaryGnb.ue[0].lo[0] packetDropInterfaceDown:sum(packetBytes) 0
scalar SingleCell_withSecondaryGnb.ue[0].lo[0] packetDropNoCarrier:count 0
scalar SingleCell_withSecondaryGnb.ue[0].lo[0] packetDropNoCarrier:sum(packetBytes) 0
scalar SingleCell_withSecondaryGnb.ue[0].cellularNic.pdcp sentPacketToLowerLayer:count 0
scalar SingleCell_withSecondaryGnb.ue[0].cellularNic.pdcp sentPacketToLowerLayer:sum(packetBytes) 0
scalar SingleCell_withSecondaryGnb.ue[0].cellularNic.pdcp sentPacketToUpperLayer:count 1360
scalar SingleCell_withSecondaryGnb.ue[0].cellularNic.pdcp sentPacketToUpperLayer:sum(packetBytes) 4118080
scalar SingleCell_withSecondaryGnb.ue[0].cellularNic.pdcp receivedPacketFromLowerLayer:count 1360
scalar SingleCell_withSecondaryGnb.ue[0].cellularNic.pdcp receivedPacketFromLowerLayer:sum(packetBytes) 4119440
scalar SingleCell_withSecondaryGnb.ue[0].cellularNic.pdcp receivedPacketFromUpperLayer:count 0
scalar SingleCell_withSecondaryGnb.ue[0].cellularNic.pdcp receivedPacketFromUpperLayer:sum(packetBytes) 0
scalar SingleCell_withSecondaryGnb.ue[0].cellularNic.rlc.tm rlcPacketLossUl:mean -nan
scalar SingleCell_withSecondaryGnb.ue[0].cellularNic.rlc.tm rlcPacketLossUl:sum 0
scalar SingleCell_withSecondaryGnb.ue[0].cellularNic.rlc.tm rlcPacketLossDl:mean -nan
scalar SingleCell_withSecondaryGnb.ue[0].cellularNic.rlc.tm rlcPacketLossDl:sum 0
scalar SingleCell_withSecondaryGnb.ue[0].cellularNic.rlc.tm sentPacketToLowerLayer:count 0
scalar SingleCell_withSecondaryGnb.ue[0].cellularNic.rlc.tm sentPacketToLowerLayer:sum(packetBytes) 0
scalar SingleCell_withSecondaryGnb.ue[0].cellularNic.rlc.tm sentPacketToUpperLayer:count 0
scalar SingleCell_withSecondaryGnb.ue[0].cellularNic.rlc.tm sentPacketToUpperLayer:sum(packetBytes) 0
scalar SingleCell_withSecondaryGnb.ue[0].cellularNic.rlc.tm receivedPacketFromLowerLayer:count 0
scalar SingleCell_withSecondaryGnb.ue[0].cellularNic.rlc.tm receivedPacketFromLowerLayer:sum(packetBytes) 0
scalar SingleCell_withSecondaryGnb.ue[0].cellularNic.rlc.tm receivedPacketFromUpperLayer:count 0
scalar SingleCell_withSecondaryGnb.ue[0].cellularNic.rlc.tm receivedPacketFromUpperLayer:sum(packetBytes) 0
scalar SingleCell_withSecondaryGnb.ue[0].cellularNic.rlc.um rlcCellThroughputD2D:simu5g_rateavg -nan
scalar SingleCell_withSecondaryGnb.ue[0].cellularNic.rlc.um rlcPduThroughputD2D:simu5g_rateavg -nan
scalar SingleCell_withSecondaryGnb.ue[0].cellularNic.rlc.um rlcPduDelayD2D:mean -nan
scalar SingleCell_withSecondaryGnb.ue[0].cellularNic.rlc.um rlcThroughputD2D:simu5g_rateavg -nan
scalar SingleCell_withSecondaryGnb.ue[0].cellularNic.rlc.um rlcDelayD2D:mean -nan
scalar SingleCell_withSecondaryGnb.ue[0].cellularNic.rlc.um rlcCellThroughputUl:simu5g_rateavg -nan
scalar SingleCell_withSecondaryGnb.ue[0].cellularNic.rlc.um rlcCellThroughputDl:simu5g_rateavg -nan
scalar SingleCell_withSecondaryGnb.ue[0].cellularNic.rlc.um rlcPduThroughputUl:simu5g_rateavg -nan
scalar SingleCell_withSecondaryGnb.ue[0].cellularNic.rlc.um rlcPduThroughputDl:simu5g_rateavg -nan
scalar SingleCell_withSecondaryGnb.ue[0].cellularNic.rlc.um rlcPduDelayUl:mean -nan
scalar SingleCell_withSecondaryGnb.ue[0].cellularNic.rlc.um rlcPduDelayDl:mean -nan
scalar SingleCell_withSecondaryGnb.ue[0].cellularNic.rlc.um rlcThroughputUl:simu5g_rateavg -nan
scalar SingleCell_withSecondaryGnb.ue[0].cellularNic.rlc.um rlcThroughputDl:simu5g_rateavg -nan
scalar SingleCell_withSecondaryGnb.ue[0].cellularNic.rlc.um rlcDelayUl:mean -nan
scalar SingleCell_withSecondaryGnb.ue[0].cellularNic.rlc.um rlcDelayDl:mean -nan
scalar SingleCell_withSecondaryGnb.ue[0].cellularNic.rlc.um sentPacketToLowerLayer:count 0
scalar SingleCell_withSecondaryGnb.ue[0].cellularNic.rlc.um sentPacketToLowerLayer:sum(packetBytes) 0
scalar SingleCell_withSecondaryGnb.ue[0].cellularNic.rlc.um sentPacketToUpperLayer:count 0
scalar SingleCell_withSecondaryGnb.ue[0].cellularNic.rlc.um sentPacketToUpperLayer:sum(packetBytes) 0
scalar SingleCell_withSecondaryGnb.ue[0].cellularNic.rlc.um receivedPacketFromLowerLayer:count 0
scalar SingleCell_withSecondaryGnb.ue[0].cellularNic.rlc.um receivedPacketFromLowerLayer:sum(packetBytes) 0
scalar SingleCell_withSecondaryGnb.ue[0].cellularNic.rlc.um receivedPacketFromUpperLayer:count 0
scalar SingleCell_withSecondaryGnb.ue[0].cellularNic.rlc.um receivedPacketFromUpperLayer:sum(packetBytes) 0
scalar SingleCell_withSecondaryGnb.ue[0].cellularNic.rlc.am rlcPacketLossTotal:mean -nan
scalar SingleCell_withSecondaryGnb.ue[0].cellularNic.rlc.am rlcCellThroughputUl:simu5g_rateavg -nan
scalar SingleCell_withSecondaryGnb.ue[0].cellularNic.rlc.am rlcCellThroughputDl:simu5g_rateavg -nan
scalar SingleCell_withSecondaryGnb.ue[0].cellularNic.rlc.am rlcPduThroughputUl:simu5g_rateavg -nan
scalar SingleCell_withSecondaryGnb.ue[0].cellularNic.rlc.am rlcPduThroughputDl:simu5g_rateavg -nan
scalar SingleCell_withSecondaryGnb.ue[0].cellularNic.rlc.am rlcPduDelayUl:mean -nan
scalar SingleCell_withSecondaryGnb.ue[0].cellularNic.rlc.am rlcPduDelayDl:mean -nan
scalar SingleCell_withSecondaryGnb.ue[0].cellularNic.rlc.am rlcThroughputUl:simu5g_rateavg -nan
scalar SingleCell_withSecondaryGnb.ue[0].cellularNic.rlc.am rlcThroughputDl:simu5g_rateavg -nan
scalar SingleCell_withSecondaryGnb.ue[0].cellularNic.rlc.am rlcDelayUl:mean -nan
scalar SingleCell_withSecondaryGnb.ue[0].cellularNic.rlc.am rlcDelayDl:mean -nan
scalar SingleCell_withSecondaryGnb.ue[0].cellularNic.rlc.am rlcPduPacketLossUl:mean -nan
scalar SingleCell_withSecondaryGnb.ue[0].cellularNic.rlc.am rlcPduPacketLossDl:mean -nan
scalar SingleCell_withSecondaryGnb.ue[0].cellularNic.rlc.am rlcPacketLossUl:mean -nan
scalar SingleCell_withSecondaryGnb.ue[0].cellularNic.rlc.am rlcPacketLossDl:mean -nan
scalar SingleCell_withSecondaryGnb.ue[0].cellularNic.rlc.am rlcCellPacketLossUl:mean -nan
scalar SingleCell_withSecondaryGnb.ue[0].cellularNic.rlc.am rlcCellPacketLossDl:mean -nan
scalar SingleCell_withSecondaryGnb.ue[0].cellularNic.mac harqErrorRate_4th_D2D:mean -nan
scalar SingleCell_withSecondaryGnb.ue[0].cellularNic.mac harqErrorRate_3rd_D2D:mean -nan
scalar SingleCell_withSecondaryGnb.ue[0].cellularNic.mac harqErrorRate_2nd_D2D:mean -nan
scalar SingleCell_withSecondaryGnb.ue[0].cellularNic.mac harqErrorRate_1st_D2D:mean -nan
scalar SingleCell_withSecondaryGnb.ue[0].cellularNic.mac harqErrorRateD2D:mean -nan
scalar SingleCell_withSecondaryGnb.ue[0].cellularNic.mac macPacketLossD2D:mean -nan
scalar SingleCell_withSecondaryGnb.ue[0].cellularNic.mac macDelayD2D:mean -nan
scalar SingleCell_withSecondaryGnb.ue[0].cellularNic.mac macThroughputD2D:simu5g_rateavg -nan
scalar SingleCell_withSecondaryGnb.ue[0].cellularNic.mac harqTxAttemptsUl:mean -nan
scalar SingleCell_withSecondaryGnb.ue[0].cellularNic.mac harqTxAttemptsDl:mean -nan
scalar SingleCell_withSecondaryGnb.ue[0].cellularNic.mac harqErrorRate_4th_Ul:mean -nan
scalar SingleCell_withSecondaryGnb.ue[0].cellularNic.mac harqErrorRate_4th_Dl:mean -nan
scalar SingleCell_withSecondaryGnb.ue[0].cellularNic.mac harqErrorRate_3rd_Ul:mean -nan
scalar SingleCell_withSecondaryGnb.ue[0].cellularNic.mac harqErrorRate_3rd_Dl:mean -nan
scalar SingleCell_withSecondaryGnb.ue[0].cellularNic.mac harqErrorRate_2nd_Ul:mean -nan
scalar SingleCell_withSecondaryGnb.ue[0].cellularNic.mac harqErrorRate_2nd_Dl:mean -nan
scalar SingleCell_withSecondaryGnb.ue[0].cellularNic.mac harqErrorRate_1st_Ul:mean -nan
scalar SingleCell_withSecondaryGnb.ue[0].cellularNic.mac harqErrorRate_1st_Dl:mean -nan
scalar SingleCell_withSecondaryGnb.ue[0].cellularNic.mac harqErrorRateUl:mean -nan
scalar SingleCell_withSecondaryGnb.ue[0].cellularNic.mac harqErrorRateDl:mean -nan
scalar SingleCell_withSecondaryGnb.ue[0].cellularNic.mac macCellPacketLossUl:mean -nan
scalar SingleCell_withSecondaryGnb.ue[0].cellularNic.mac macCellPacketLossDl:mean -nan
scalar SingleCell_withSecondaryGnb.ue[0].cellularNic.mac macPacketLossUl:mean -nan
scalar SingleCell_withSecondaryGnb.ue[0].cellularNic.mac macPacketLossDl:mean -nan
scalar SingleCell_withSecondaryGnb.ue[0].cellularNic.mac macThroughputUl:simu5g_rateavg -nan
scalar SingleCell_withSecondaryGnb.ue[0].cellularNic.mac macThroughputDl:simu5g_rateavg -nan
scalar SingleCell_withSecondaryGnb.ue[0].cellularNic.mac macDelayUl:mean -nan
scalar SingleCell_withSecondaryGnb.ue[0].cellularNic.mac macDelayDl:mean -nan
scalar SingleCell_withSecondaryGnb.ue[0].cellularNic.mac macCellThroughputUl:simu5g_rateavg -nan
scalar SingleCell_withSecondaryGnb.ue[0].cellularNic.mac macCellThroughputDl:simu5g_rateavg -nan
scalar SingleCell_withSecondaryGnb.ue[0].cellularNic.mac rcvdD2DModeSwitchNotification:count 0
scalar SingleCell_withSecondaryGnb.ue[0].cellularNic.mac sentPacketToLowerLayer:count 0
scalar SingleCell_withSecondaryGnb.ue[0].cellularNic.mac sentPacketToLowerLayer:sum(packetBytes) 0
scalar SingleCell_withSecondaryGnb.ue[0].cellularNic.mac sentPacketToUpperLayer:count 0
scalar SingleCell_withSecondaryGnb.ue[0].cellularNic.mac sentPacketToUpperLayer:sum(packetBytes) 0
scalar SingleCell_withSecondaryGnb.ue[0].cellularNic.mac receivedPacketFromLowerLayer:count 0
scalar SingleCell_withSecondaryGnb.ue[0].cellularNic.mac receivedPacketFromLowerLayer:sum(packetBytes) 0
scalar SingleCell_withSecondaryGnb.ue[0].cellularNic.mac receivedPacketFromUpperLayer:count 0
scalar SingleCell_withSecondaryGnb.ue[0].cellularNic.mac receivedPacketFromUpperLayer:sum(packetBytes) 0
scalar SingleCell_withSecondaryGnb.ue[0].cellularNic.mac macBufferOverFlowD2D:mean -nan
scalar SingleCell_withSecondaryGnb.ue[0].cellularNic.mac macBufferOverFlowUl:mean -nan
scalar SingleCell_withSecondaryGnb.ue[0].cellularNic.mac macBufferOverFlowDl:mean -nan
scalar SingleCell_withSecondaryGnb.ue[0].cellularNic.phy distance:mean -nan
scalar SingleCell_withSecondaryGnb.ue[0].cellularNic.phy averageCqiD2D:mean -nan
scalar SingleCell_withSecondaryGnb.ue[0].cellularNic.phy averageCqiUl:mean -nan
scalar SingleCell_withSecondaryGnb.ue[0].cellularNic.phy averageCqiUl:count 0
scalar SingleCell_withSecondaryGnb.ue[0].cellularNic.phy averageCqiDl:mean -nan
scalar SingleCell_withSecondaryGnb.ue[0].cellularNic.phy averageCqiDl:count 0
scalar SingleCell_withSecondaryGnb.ue[0].cellularNic.channelModel[0] measuredSinrUl:mean 32.867790785254357
scalar SingleCell_withSecondaryGnb.ue[0].cellularNic.channelModel[0] measuredSinrDl:mean -32.466639555460006
scalar SingleCell_withSecondaryGnb.ue[0].cellularNic.channelModel[0] rcvdSinrD2D:mean -nan
scalar SingleCell_withSecondaryGnb.ue[0].cellularNic.channelModel[0] rcvdSinrUl:mean -nan
scalar SingleCell_withSecondaryGnb.ue[0].cellularNic.channelModel[0] rcvdSinrDl:mean -nan
scalar SingleCell_withSecondaryGnb.ue[0].cellularNic.nrRlc.tm rlcPacketLossUl:mean -nan
scalar SingleCell_withSecondaryGnb.ue[0].cellularNic.nrRlc.tm rlcPacketLossUl:sum 0
scalar SingleCell_withSecondaryGnb.ue[0].cellularNic.nrRlc.tm rlcPacketLossDl:mean -nan
scalar SingleCell_withSecondaryGnb.ue[0].cellularNic.nrRlc.tm rlcPacketLossDl:sum 0
scalar SingleCell_withSecondaryGnb.ue[0].cellularNic.nrRlc.tm sentPacketToLowerLayer:count 0
scalar SingleCell_withSecondaryGnb.ue[0].cellularNic.nrRlc.tm sentPacketToLowerLayer:sum(packetBytes) 0
scalar SingleCell_withSecondaryGnb.ue[0].cellularNic.nrRlc.tm sentPacketToUpperLayer:count 0
scalar SingleCell_withSecondaryGnb.ue[0].cellularNic.nrRlc.tm sentPacketToUpperLayer:sum(packetBytes) 0
scalar SingleCell_withSecondaryGnb.ue[0].cellularNic.nrRlc.tm receivedPacketFromLowerLayer:count 0
scalar SingleCell_withSecondaryGnb.ue[0].cellularNic.nrRlc.tm receivedPacketFromLowerLayer:sum(packetBytes) 0
scalar SingleCell_withSecondaryGnb.ue[0].cellularNic.nrRlc.tm receivedPacketFromUpperLayer:count 0
scalar SingleCell_withSecondaryGnb.ue[0].cellularNic.nrRlc.tm receivedPacketFromUpperLayer:sum(packetBytes) 0
scalar SingleCell_withSecondaryGnb.ue[0].cellularNic.nrRlc.um rlcCellThroughputD2D:simu5g_rateavg -nan
scalar SingleCell_withSecondaryGnb.ue[0].cellularNic.nrRlc.um rlcPduThroughputD2D:simu5g_rateavg -nan
scalar SingleCell_withSecondaryGnb.ue[0].cellularNic.nrRlc.um rlcPduDelayD2D:mean -nan
scalar SingleCell_withSecondaryGnb.ue[0].cellularNic.nrRlc.um rlcThroughputD2D:simu5g_rateavg -nan
scalar SingleCell_withSecondaryGnb.ue[0].cellularNic.nrRlc.um rlcDelayD2D:mean -nan
scalar SingleCell_withSecondaryGnb.ue[0].cellularNic.nrRlc.um rlcCellThroughputUl:simu5g_rateavg -nan
scalar SingleCell_withSecondaryGnb.ue[0].cellularNic.nrRlc.um rlcCellThroughputDl:simu5g_rateavg -nan
scalar SingleCell_withSecondaryGnb.ue[0].cellularNic.nrRlc.um rlcPduThroughputUl:simu5g_rateavg -nan
scalar SingleCell_withSecondaryGnb.ue[0].cellularNic.nrRlc.um rlcPduThroughputDl:simu5g_rateavg 0
scalar SingleCell_withSecondaryGnb.ue[0].cellularNic.nrRlc.um rlcPduDelayUl:mean -nan
scalar SingleCell_withSecondaryGnb.ue[0].cellularNic.nrRlc.um rlcPduDelayDl:mean 0.003999999999999157
scalar SingleCell_withSecondaryGnb.ue[0].cellularNic.nrRlc.um rlcThroughputUl:simu5g_rateavg -nan
scalar SingleCell_withSecondaryGnb.ue[0].cellularNic.nrRlc.um rlcThroughputDl:simu5g_rateavg 1186451.554989106
scalar SingleCell_withSecondaryGnb.ue[0].cellularNic.nrRlc.um rlcDelayUl:mean -nan
scalar SingleCell_withSecondaryGnb.ue[0].cellularNic.nrRlc.um rlcDelayDl:mean 2.3260660666117627
scalar SingleCell_withSecondaryGnb.ue[0].cellularNic.nrRlc.um sentPacketToLowerLayer:count 0
scalar SingleCell_withSecondaryGnb.ue[0].cellularNic.nrRlc.um sentPacketToLowerLayer:sum(packetBytes) 0
scalar SingleCell_withSecondaryGnb.ue[0].cellularNic.nrRlc.um sentPacketToUpperLayer:count 1360
scalar SingleCell_withSecondaryGnb.ue[0].cellularNic.nrRlc.um sentPacketToUpperLayer:sum(packetBytes) 4119440
scalar SingleCell_withSecondaryGnb.ue[0].cellularNic.nrRlc.um receivedPacketFromLowerLayer:count 15834
[...]
scalar SingleCell_withSecondaryGnb.masterEnb.sctp "RTO 5:10.0.2.2:sumweights" 0
scalar SingleCell_withSecondaryGnb.masterEnb.sctp "RTO 5:10.0.2.2:mean" -nan
scalar SingleCell_withSecondaryGnb.masterEnb.sctp "RTO 5:10.0.2.2:stddev" nan
scalar SingleCell_withSecondaryGnb.masterEnb.sctp "RTO 5:10.0.2.2:min" inf
scalar SingleCell_withSecondaryGnb.masterEnb.sctp "RTO 5:10.0.2.2:max" -inf
scalar SingleCell_withSecondaryGnb.masterEnb.sctp "RTO 5:10.0.2.2:starttime" nan
scalar SingleCell_withSecondaryGnb.masterEnb.sctp "RTO 5:10.0.2.2:endtime" nan
scalar SingleCell_withSecondaryGnb.masterEnb.sctp "Slow Start Threshold 5:192.168.4.1:count" 0
scalar SingleCell_withSecondaryGnb.masterEnb.sctp "Slow Start Threshold 5:192.168.4.1:sum" 0
scalar SingleCell_withSecondaryGnb.masterEnb.sctp "Slow Start Threshold 5:192.168.4.1:sumweights" 0
scalar SingleCell_withSecondaryGnb.masterEnb.sctp "Slow Start Threshold 5:192.168.4.1:mean" -nan
scalar SingleCell_withSecondaryGnb.masterEnb.sctp "Slow Start Threshold 5:192.168.4.1:stddev" nan
scalar SingleCell_withSecondaryGnb.masterEnb.sctp "Slow Start Threshold 5:192.168.4.1:min" inf
scalar SingleCell_withSecondaryGnb.masterEnb.sctp "Slow Start Threshold 5:192.168.4.1:max" -inf
scalar SingleCell_withSecondaryGnb.masterEnb.sctp "Slow Start Threshold 5:192.168.4.1:starttime" nan
scalar SingleCell_withSecondaryGnb.masterEnb.sctp "Slow Start Threshold 5:192.168.4.1:endtime" nan
scalar SingleCell_withSecondaryGnb.masterEnb.sctp "Congestion Window 5:192.168.4.1:count" 0
scalar SingleCell_withSecondaryGnb.masterEnb.sctp "Congestion Window 5:192.168.4.1:sum" 0
scalar SingleCell_withSecondaryGnb.masterEnb.sctp "Congestion Window 5:192.168.4.1:sumweights" 0
scalar SingleCell_withSecondaryGnb.masterEnb.sctp "Congestion Window 5:192.168.4.1:mean" -nan
scalar SingleCell_withSecondaryGnb.masterEnb.sctp "Congestion Window 5:192.168.4.1:stddev" nan
scalar SingleCell_withSecondaryGnb.masterEnb.sctp "Congestion Window 5:192.168.4.1:min" inf
scalar SingleCell_withSecondaryGnb.masterEnb.sctp "Congestion Window 5:192.168.4.1:max" -inf
scalar SingleCell_withSecondaryGnb.masterEnb.sctp "Congestion Window 5:192.168.4.1:starttime" nan
scalar SingleCell_withSecondaryGnb.masterEnb.sctp "Congestion Window 5:192.168.4.1:endtime" nan
scalar SingleCell_withSecondaryGnb.masterEnb.sctp "Bandwidth 5:192.168.4.1:count" 0
scalar SingleCell_withSecondaryGnb.masterEnb.sctp "Bandwidth 5:192.168.4.1:sum" 0
scalar SingleCell_withSecondaryGnb.masterEnb.sctp "Bandwidth 5:192.168.4.1:sumweights" 0
scalar SingleCell_withSecondaryGnb.masterEnb.sctp "Bandwidth 5:192.168.4.1:mean" -nan
scalar SingleCell_withSecondaryGnb.masterEnb.sctp "Bandwidth 5:192.168.4.1:stddev" nan
scalar SingleCell_withSecondaryGnb.masterEnb.sctp "Bandwidth 5:192.168.4.1:min" inf
scalar SingleCell_withSecondaryGnb.masterEnb.sctp "Bandwidth 5:192.168.4.1:max" -inf
scalar SingleCell_withSecondaryGnb.masterEnb.sctp "Bandwidth 5:192.168.4.1:starttime" nan
scalar SingleCell_withSecondaryGnb.masterEnb.sctp "Bandwidth 5:192.168.4.1:endtime" nan
scalar SingleCell_withSecondaryGnb.masterEnb.sctp "RTO 5:192.168.4.1:count" 0
scalar SingleCell_withSecondaryGnb.masterEnb.sctp "RTO 5:192.168.4.1:sum" 0
scalar SingleCell_withSecondaryGnb.masterEnb.sctp "RTO 5:192.168.4.1:sumweights" 0
scalar SingleCell_withSecondaryGnb.masterEnb.sctp "RTO 5:192.168.4.1:mean" -nan
scalar SingleCell_withSecondaryGnb.masterEnb.sctp "RTO 5:192.168.4.1:stddev" nan
scalar SingleCell_withSecondaryGnb.masterEnb.sctp "RTO 5:192.168.4.1:min" inf
scalar SingleCell_withSecondaryGnb.masterEnb.sctp "RTO 5:192.168.4.1:max" -inf
scalar SingleCell_withSecondaryGnb.masterEnb.sctp "RTO 5:192.168.4.1:starttime" nan
scalar SingleCell_withSecondaryGnb.masterEnb.sctp "RTO 5:192.168.4.1:endtime" nan
scalar SingleCell_withSecondaryGnb.masterEnb.sctp "Slow Start Threshold 5:192.168.5.1:count" 0
scalar SingleCell_withSecondaryGnb.masterEnb.sctp "Slow Start Threshold 5:192.168.5.1:sum" 0
scalar SingleCell_withSecondaryGnb.masterEnb.sctp "Slow Start Threshold 5:192.168.5.1:sumweights" 0
scalar SingleCell_withSecondaryGnb.masterEnb.sctp "Slow Start Threshold 5:192.168.5.1:mean" -nan
scalar SingleCell_withSecondaryGnb.masterEnb.sctp "Slow Start Threshold 5:192.168.5.1:stddev" nan
scalar SingleCell_withSecondaryGnb.masterEnb.sctp "Slow Start Threshold 5:192.168.5.1:min" inf
scalar SingleCell_withSecondaryGnb.masterEnb.sctp "Slow Start Threshold 5:192.168.5.1:max" -inf
scalar SingleCell_withSecondaryGnb.masterEnb.sctp "Slow Start Threshold 5:192.168.5.1:starttime" nan
scalar SingleCell_withSecondaryGnb.masterEnb.sctp "Slow Start Threshold 5:192.168.5.1:endtime" nan
scalar SingleCell_withSecondaryGnb.masterEnb.sctp "Congestion Window 5:192.168.5.1:count" 0
scalar SingleCell_withSecondaryGnb.masterEnb.sctp "Congestion Window 5:192.168.5.1:sum" 0
scalar SingleCell_withSecondaryGnb.masterEnb.sctp "Congestion Window 5:192.168.5.1:sumweights" 0
scalar SingleCell_withSecondaryGnb.masterEnb.sctp "Congestion Window 5:192.168.5.1:mean" -nan
scalar SingleCell_withSecondaryGnb.masterEnb.sctp "Congestion Window 5:192.168.5.1:stddev" nan
scalar SingleCell_withSecondaryGnb.masterEnb.sctp "Congestion Window 5:192.168.5.1:min" inf
scalar SingleCell_withSecondaryGnb.masterEnb.sctp "Congestion Window 5:192.168.5.1:max" -inf
scalar SingleCell_withSecondaryGnb.masterEnb.sctp "Congestion Window 5:192.168.5.1:starttime" nan
scalar SingleCell_withSecondaryGnb.masterEnb.sctp "Congestion Window 5:192.168.5.1:endtime" nan
scalar SingleCell_withSecondaryGnb.masterEnb.sctp "Bandwidth 5:192.168.5.1:count" 0
scalar SingleCell_withSecondaryGnb.masterEnb.sctp "Bandwidth 5:192.168.5.1:sum" 0
scalar SingleCell_withSecondaryGnb.masterEnb.sctp "Bandwidth 5:192.168.5.1:sumweights" 0
scalar SingleCell_withSecondaryGnb.masterEnb.sctp "Bandwidth 5:192.168.5.1:mean" -nan
scalar SingleCell_withSecondaryGnb.masterEnb.sctp "Bandwidth 5:192.168.5.1:stddev" nan
scalar SingleCell_withSecondaryGnb.masterEnb.sctp "Bandwidth 5:192.168.5.1:min" inf
scalar SingleCell_withSecondaryGnb.masterEnb.sctp "Bandwidth 5:192.168.5.1:max" -inf
scalar SingleCell_withSecondaryGnb.masterEnb.sctp "Bandwidth 5:192.168.5.1:starttime" nan
scalar SingleCell_withSecondaryGnb.masterEnb.sctp "Bandwidth 5:192.168.5.1:endtime" nan
scalar SingleCell_withSecondaryGnb.masterEnb.sctp "RTO 5:192.168.5.1:count" 0
scalar SingleCell_withSecondaryGnb.masterEnb.sctp "RTO 5:192.168.5.1:sum" 0
scalar SingleCell_withSecondaryGnb.masterEnb.sctp "RTO 5:192.168.5.1:sumweights" 0
scalar SingleCell_withSecondaryGnb.masterEnb.sctp "RTO 5:192.168.5.1:mean" -nan
scalar SingleCell_withSecondaryGnb.masterEnb.sctp "RTO 5:192.168.5.1:stddev" nan
scalar SingleCell_withSecondaryGnb.masterEnb.sctp "RTO 5:192.168.5.1:min" inf
scalar SingleCell_withSecondaryGnb.masterEnb.sctp "RTO 5:192.168.5.1:max" -inf
scalar SingleCell_withSecondaryGnb.masterEnb.sctp "RTO 5:192.168.5.1:starttime" nan
scalar SingleCell_withSecondaryGnb.masterEnb.sctp "RTO 5:192.168.5.1:endtime" nan
scalar SingleCell_withSecondaryGnb.secondaryGnb.sctp "Slow Start Threshold 9:10.0.0.2:count" 0
scalar SingleCell_withSecondaryGnb.secondaryGnb.sctp "Slow Start Threshold 9:10.0.0.2:sum" 0
scalar SingleCell_withSecondaryGnb.secondaryGnb.sctp "Slow Start Threshold 9:10.0.0.2:sumweights" 0
scalar SingleCell_withSecondaryGnb.secondaryGnb.sctp "Slow Start Threshold 9:10.0.0.2:mean" -nan
scalar SingleCell_withSecondaryGnb.secondaryGnb.sctp "Slow Start Threshold 9:10.0.0.2:stddev" nan
scalar SingleCell_withSecondaryGnb.secondaryGnb.sctp "Slow Start Threshold 9:10.0.0.2:min" inf
scalar SingleCell_withSecondaryGnb.secondaryGnb.sctp "Slow Start Threshold 9:10.0.0.2:max" -inf
scalar SingleCell_withSecondaryGnb.secondaryGnb.sctp "Slow Start Threshold 9:10.0.0.2:starttime" nan
scalar SingleCell_withSecondaryGnb.secondaryGnb.sctp "Slow Start Threshold 9:10.0.0.2:endtime" nan
scalar SingleCell_withSecondaryGnb.secondaryGnb.sctp "Congestion Window 9:10.0.0.2:count" 0
scalar SingleCell_withSecondaryGnb.secondaryGnb.sctp "Congestion Window 9:10.0.0.2:sum" 0
scalar SingleCell_withSecondaryGnb.secondaryGnb.sctp "Congestion Window 9:10.0.0.2:sumweights" 0
scalar SingleCell_withSecondaryGnb.secondaryGnb.sctp "Congestion Window 9:10.0.0.2:mean" -nan
scalar SingleCell_withSecondaryGnb.secondaryGnb.sctp "Congestion Window 9:10.0.0.2:stddev" nan
scalar SingleCell_withSecondaryGnb.secondaryGnb.sctp "Congestion Window 9:10.0.0.2:min" inf
scalar SingleCell_withSecondaryGnb.secondaryGnb.sctp "Congestion Window 9:10.0.0.2:max" -inf
scalar SingleCell_withSecondaryGnb.secondaryGnb.sctp "Congestion Window 9:10.0.0.2:starttime" nan
scalar SingleCell_withSecondaryGnb.secondaryGnb.sctp "Congestion Window 9:10.0.0.2:endtime" nan
scalar SingleCell_withSecondaryGnb.secondaryGnb.sctp "Bandwidth 9:10.0.0.2:count" 0
scalar SingleCell_withSecondaryGnb.secondaryGnb.sctp "Bandwidth 9:10.0.0.2:sum" 0
scalar SingleCell_withSecondaryGnb.secondaryGnb.sctp "Bandwidth 9:10.0.0.2:sumweights" 0
scalar SingleCell_withSecondaryGnb.secondaryGnb.sctp "Bandwidth 9:10.0.0.2:mean" -nan
scalar SingleCell_withSecondaryGnb.secondaryGnb.sctp "Bandwidth 9:10.0.0.2:stddev" nan
scalar SingleCell_withSecondaryGnb.secondaryGnb.sctp "Bandwidth 9:10.0.0.2:min" inf
scalar SingleCell_withSecondaryGnb.secondaryGnb.sctp "Bandwidth 9:10.0.0.2:max" -inf
scalar SingleCell_withSecondaryGnb.secondaryGnb.sctp "Bandwidth 9:10.0.0.2:starttime" nan
scalar SingleCell_withSecondaryGnb.secondaryGnb.sctp "Bandwidth 9:10.0.0.2:endtime" nan
scalar SingleCell_withSecondaryGnb.secondaryGnb.sctp "RTO 9:10.0.0.2:count" 0
scalar SingleCell_withSecondaryGnb.secondaryGnb.sctp "RTO 9:10.0.0.2:sum" 0
scalar SingleCell_withSecondaryGnb.secondaryGnb.sctp "RTO 9:10.0.0.2:sumweights" 0
scalar SingleCell_withSecondaryGnb.secondaryGnb.sctp "RTO 9:10.0.0.2:mean" -nan
scalar SingleCell_withSecondaryGnb.secondaryGnb.sctp "RTO 9:10.0.0.2:stddev" nan
scalar SingleCell_withSecondaryGnb.secondaryGnb.sctp "RTO 9:10.0.0.2:min" inf
scalar SingleCell_withSecondaryGnb.secondaryGnb.sctp "RTO 9:10.0.0.2:max" -inf
scalar SingleCell_withSecondaryGnb.secondaryGnb.sctp "RTO 9:10.0.0.2:starttime" nan
scalar SingleCell_withSecondaryGnb.secondaryGnb.sctp "RTO 9:10.0.0.2:endtime" nan
scalar SingleCell_withSecondaryGnb.secondaryGnb.sctp "Slow Start Threshold 9:10.0.1.1:count" 0
scalar SingleCell_withSecondaryGnb.secondaryGnb.sctp "Slow Start Threshold 9:10.0.1.1:sum" 0
scalar SingleCell_withSecondaryGnb.secondaryGnb.sctp "Slow Start Threshold 9:10.0.1.1:sumweights" 0
scalar SingleCell_withSecondaryGnb.secondaryGnb.sctp "Slow Start Threshold 9:10.0.1.1:mean" -nan
scalar SingleCell_withSecondaryGnb.secondaryGnb.sctp "Slow Start Threshold 9:10.0.1.1:stddev" nan
scalar SingleCell_withSecondaryGnb.secondaryGnb.sctp "Slow Start Threshold 9:10.0.1.1:min" inf
scalar SingleCell_withSecondaryGnb.secondaryGnb.sctp "Slow Start Threshold 9:10.0.1.1:max" -inf
scalar SingleCell_withSecondaryGnb.secondaryGnb.sctp "Slow Start Threshold 9:10.0.1.1:starttime" nan
scalar SingleCell_withSecondaryGnb.secondaryGnb.sctp "Slow Start Threshold 9:10.0.1.1:endtime" nan
scalar SingleCell_withSecondaryGnb.secondaryGnb.sctp "Congestion Window 9:10.0.1.1:count" 0
scalar SingleCell_withSecondaryGnb.secondaryGnb.sctp "Congestion Window 9:10.0.1.1:sum" 0
scalar SingleCell_withSecondaryGnb.secondaryGnb.sctp "Congestion Window 9:10.0.1.1:sumweights" 0
scalar SingleCell_withSecondaryGnb.secondaryGnb.sctp "Congestion Window 9:10.0.1.1:mean" -nan
scalar SingleCell_withSecondaryGnb.secondaryGnb.sctp "Congestion Window 9:10.0.1.1:stddev" nan
scalar SingleCell_withSecondaryGnb.secondaryGnb.sctp "Congestion Window 9:10.0.1.1:min" inf
scalar SingleCell_withSecondaryGnb.secondaryGnb.sctp "Congestion Window 9:10.0.1.1:max" -inf
scalar SingleCell_withSecondaryGnb.secondaryGnb.sctp "Congestion Window 9:10.0.1.1:starttime" nan
scalar SingleCell_withSecondaryGnb.secondaryGnb.sctp "Congestion Window 9:10.0.1.1:endtime" nan
scalar SingleCell_withSecondaryGnb.secondaryGnb.sctp "Bandwidth 9:10.0.1.1:count" 0
scalar SingleCell_withSecondaryGnb.secondaryGnb.sctp "Bandwidth 9:10.0.1.1:sum" 0
scalar SingleCell_withSecondaryGnb.secondaryGnb.sctp "Bandwidth 9:10.0.1.1:sumweights" 0
scalar SingleCell_withSecondaryGnb.secondaryGnb.sctp "Bandwidth 9:10.0.1.1:mean" -nan
scalar SingleCell_withSecondaryGnb.secondaryGnb.sctp "Bandwidth 9:10.0.1.1:stddev" nan
scalar SingleCell_withSecondaryGnb.secondaryGnb.sctp "Bandwidth 9:10.0.1.1:min" inf
scalar SingleCell_withSecondaryGnb.secondaryGnb.sctp "Bandwidth 9:10.0.1.1:max" -inf
scalar SingleCell_withSecondaryGnb.secondaryGnb.sctp "Bandwidth 9:10.0.1.1:starttime" nan
scalar SingleCell_withSecondaryGnb.secondaryGnb.sctp "Bandwidth 9:10.0.1.1:endtime" nan
scalar SingleCell_withSecondaryGnb.secondaryGnb.sctp "RTO 9:10.0.1.1:count" 0
scalar SingleCell_withSecondaryGnb.secondaryGnb.sctp "RTO 9:10.0.1.1:sum" 0
scalar SingleCell_withSecondaryGnb.secondaryGnb.sctp "RTO 9:10.0.1.1:sumweights" 0
scalar SingleCell_withSecondaryGnb.secondaryGnb.sctp "RTO 9:10.0.1.1:mean" -nan
scalar SingleCell_withSecondaryGnb.secondaryGnb.sctp "RTO 9:10.0.1.1:stddev" nan
scalar SingleCell_withSecondaryGnb.secondaryGnb.sctp "RTO 9:10.0.1.1:min" inf
scalar SingleCell_withSecondaryGnb.secondaryGnb.sctp "RTO 9:10.0.1.1:max" -inf
scalar SingleCell_withSecondaryGnb.secondaryGnb.sctp "RTO 9:10.0.1.1:starttime" nan
scalar SingleCell_withSecondaryGnb.secondaryGnb.sctp "RTO 9:10.0.1.1:endtime" nan
scalar SingleCell_withSecondaryGnb.secondaryGnb.sctp "Slow Start Threshold 9:10.0.2.1:count" 0
scalar SingleCell_withSecondaryGnb.secondaryGnb.sctp "Slow Start Threshold 9:10.0.2.1:sum" 0
scalar SingleCell_withSecondaryGnb.secondaryGnb.sctp "Slow Start Threshold 9:10.0.2.1:sumweights" 0
scalar SingleCell_withSecondaryGnb.secondaryGnb.sctp "Slow Start Threshold 9:10.0.2.1:mean" -nan
scalar SingleCell_withSecondaryGnb.secondaryGnb.sctp "Slow Start Threshold 9:10.0.2.1:stddev" nan
scalar SingleCell_withSecondaryGnb.secondaryGnb.sctp "Slow Start Threshold 9:10.0.2.1:min" inf
scalar SingleCell_withSecondaryGnb.secondaryGnb.sctp "Slow Start Threshold 9:10.0.2.1:max" -inf
scalar SingleCell_withSecondaryGnb.secondaryGnb.sctp "Slow Start Threshold 9:10.0.2.1:starttime" nan
scalar SingleCell_withSecondaryGnb.secondaryGnb.sctp "Slow Start Threshold 9:10.0.2.1:endtime" nan
scalar SingleCell_withSecondaryGnb.secondaryGnb.sctp "Congestion Window 9:10.0.2.1:count" 0
scalar SingleCell_withSecondaryGnb.secondaryGnb.sctp "Congestion Window 9:10.0.2.1:sum" 0
scalar SingleCell_withSecondaryGnb.secondaryGnb.sctp "Congestion Window 9:10.0.2.1:sumweights" 0
scalar SingleCell_withSecondaryGnb.secondaryGnb.sctp "Congestion Window 9:10.0.2.1:mean" -nan
scalar SingleCell_withSecondaryGnb.secondaryGnb.sctp "Congestion Window 9:10.0.2.1:stddev" nan
scalar SingleCell_withSecondaryGnb.secondaryGnb.sctp "Congestion Window 9:10.0.2.1:min" inf
scalar SingleCell_withSecondaryGnb.secondaryGnb.sctp "Congestion Window 9:10.0.2.1:max" -inf
scalar SingleCell_withSecondaryGnb.secondaryGnb.sctp "Congestion Window 9:10.0.2.1:starttime" nan
scalar SingleCell_withSecondaryGnb.secondaryGnb.sctp "Congestion Window 9:10.0.2.1:endtime" nan
scalar SingleCell_withSecondaryGnb.secondaryGnb.sctp "Bandwidth 9:10.0.2.1:count" 0
scalar SingleCell_withSecondaryGnb.secondaryGnb.sctp "Bandwidth 9:10.0.2.1:sum" 0
scalar SingleCell_withSecondaryGnb.secondaryGnb.sctp "Bandwidth 9:10.0.2.1:sumweights" 0
scalar SingleCell_withSecondaryGnb.secondaryGnb.sctp "Bandwidth 9:10.0.2.1:mean" -nan
scalar SingleCell_withSecondaryGnb.secondaryGnb.sctp "Bandwidth 9:10.0.2.1:stddev" nan
scalar SingleCell_withSecondaryGnb.secondaryGnb.sctp "Bandwidth 9:10.0.2.1:min" inf
scalar SingleCell_withSecondaryGnb.secondaryGnb.sctp "Bandwidth 9:10.0.2.1:max" -inf
scalar SingleCell_withSecondaryGnb.secondaryGnb.sctp "Bandwidth 9:10.0.2.1:starttime" nan
scalar SingleCell_withSecondaryGnb.secondaryGnb.sctp "Bandwidth 9:10.0.2.1:endtime" nan
scalar SingleCell_withSecondaryGnb.secondaryGnb.sctp "RTO 9:10.0.2.1:count" 0
scalar SingleCell_withSecondaryGnb.secondaryGnb.sctp "RTO 9:10.0.2.1:sum" 0
scalar SingleCell_withSecondaryGnb.secondaryGnb.sctp "RTO 9:10.0.2.1:sumweights" 0
scalar SingleCell_withSecondaryGnb.secondaryGnb.sctp "RTO 9:10.0.2.1:mean" -nan
scalar SingleCell_withSecondaryGnb.secondaryGnb.sctp "RTO 9:10.0.2.1:stddev" nan
scalar SingleCell_withSecondaryGnb.secondaryGnb.sctp "RTO 9:10.0.2.1:min" inf
scalar SingleCell_withSecondaryGnb.secondaryGnb.sctp "RTO 9:10.0.2.1:max" -inf
scalar SingleCell_withSecondaryGnb.secondaryGnb.sctp "RTO 9:10.0.2.1:starttime" nan
scalar SingleCell_withSecondaryGnb.secondaryGnb.sctp "RTO 9:10.0.2.1:endtime" nan
scalar SingleCell_withSecondaryGnb.secondaryGnb.sctp "Slow Start Threshold 9:192.168.3.1:count" 0
scalar SingleCell_withSecondaryGnb.secondaryGnb.sctp "Slow Start Threshold 9:192.168.3.1:sum" 0
scalar SingleCell_withSecondaryGnb.secondaryGnb.sctp "Slow Start Threshold 9:192.168.3.1:sumweights" 0
scalar SingleCell_withSecondaryGnb.secondaryGnb.sctp "Slow Start Threshold 9:192.168.3.1:mean" -nan
scalar SingleCell_withSecondaryGnb.secondaryGnb.sctp "Slow Start Threshold 9:192.168.3.1:stddev" nan
scalar SingleCell_withSecondaryGnb.secondaryGnb.sctp "Slow Start Threshold 9:192.168.3.1:min" inf
scalar SingleCell_withSecondaryGnb.secondaryGnb.sctp "Slow Start Threshold 9:192.168.3.1:max" -inf
scalar SingleCell_withSecondaryGnb.secondaryGnb.sctp "Slow Start Threshold 9:192.168.3.1:starttime" nan
scalar SingleCell_withSecondaryGnb.secondaryGnb.sctp "Slow Start Threshold 9:192.168.3.1:endtime" nan
scalar SingleCell_withSecondaryGnb.secondaryGnb.sctp "Congestion Window 9:192.168.3.1:count" 0
scalar SingleCell_withSecondaryGnb.secondaryGnb.sctp "Congestion Window 9:192.168.3.1:sum" 0
scalar SingleCell_withSecondaryGnb.secondaryGnb.sctp "Congestion Window 9:192.168.3.1:sumweights" 0
scalar SingleCell_withSecondaryGnb.secondaryGnb.sctp "Congestion Window 9:192.168.3.1:mean" -nan
scalar SingleCell_withSecondaryGnb.secondaryGnb.sctp "Congestion Window 9:192.168.3.1:stddev" nan
scalar SingleCell_withSecondaryGnb.secondaryGnb.sctp "Congestion Window 9:192.168.3.1:min" inf
scalar SingleCell_withSecondaryGnb.secondaryGnb.sctp "Congestion Window 9:192.168.3.1:max" -inf
scalar SingleCell_withSecondaryGnb.secondaryGnb.sctp "Congestion Window 9:192.168.3.1:starttime" nan
scalar SingleCell_withSecondaryGnb.secondaryGnb.sctp "Congestion Window 9:192.168.3.1:endtime" nan
scalar SingleCell_withSecondaryGnb.secondaryGnb.sctp "Bandwidth 9:192.168.3.1:count" 0
scalar SingleCell_withSecondaryGnb.secondaryGnb.sctp "Bandwidth 9:192.168.3.1:sum" 0
scalar SingleCell_withSecondaryGnb.secondaryGnb.sctp "Bandwidth 9:192.168.3.1:sumweights" 0
scalar SingleCell_withSecondaryGnb.secondaryGnb.sctp "Bandwidth 9:192.168.3.1:mean" -nan
scalar SingleCell_withSecondaryGnb.secondaryGnb.sctp "Bandwidth 9:192.168.3.1:stddev" nan
scalar SingleCell_withSecondaryGnb.secondaryGnb.sctp "Bandwidth 9:192.168.3.1:min" inf
scalar SingleCell_withSecondaryGnb.secondaryGnb.sctp "Bandwidth 9:192.168.3.1:max" -inf
scalar SingleCell_withSecondaryGnb.secondaryGnb.sctp "Bandwidth 9:192.168.3.1:starttime" nan
scalar SingleCell_withSecondaryGnb.secondaryGnb.sctp "Bandwidth 9:192.168.3.1:endtime" nan
scalar SingleCell_withSecondaryGnb.secondaryGnb.sctp "RTO 9:192.168.3.1:count" 0
scalar SingleCell_withSecondaryGnb.secondaryGnb.sctp "RTO 9:192.168.3.1:sum" 0
scalar SingleCell_withSecondaryGnb.secondaryGnb.sctp "RTO 9:192.168.3.1:sumweights" 0
scalar SingleCell_withSecondaryGnb.secondaryGnb.sctp "RTO 9:192.168.3.1:mean" -nan
scalar SingleCell_withSecondaryGnb.secondaryGnb.sctp "RTO 9:192.168.3.1:stddev" nan
scalar SingleCell_withSecondaryGnb.secondaryGnb.sctp "RTO 9:192.168.3.1:min" inf
scalar SingleCell_withSecondaryGnb.secondaryGnb.sctp "RTO 9:192.168.3.1:max" -inf
scalar SingleCell_withSecondaryGnb.secondaryGnb.sctp "RTO 9:192.168.3.1:starttime" nan
scalar SingleCell_withSecondaryGnb.secondaryGnb.sctp "RTO 9:192.168.3.1:endtime" nan

