version 3
run DualConn-SecondaryOnly-UL-0-20260709-21:32:20-652000
attr configname DualConn-SecondaryOnly-UL
attr datetime 20260709-21:32:20
attr datetimef 20260709-213220
attr experiment DualConn-SecondaryOnly-UL
attr inifile omnetpp.ini
attr iterationvars ""
attr iterationvarsd ""
attr iterationvarsf ""
attr measurement ""
attr network simu5g.simulations.nr.networks.SingleCell_withSecondaryGnb
attr processid 652000
attr repetition 0
attr replication #0
attr resultdir results
attr runnumber 0
attr seedset 0
config **.param-recording false
config image-path /home/andras/projects/Simu5G-fork/simu5g-fork/images
config output-scalar-file results/omnetpp.ini-DualConn-SecondaryOnly-UL-#0.sca
config output-scalar-precision 17
config output-vector-file results/omnetpp.ini-DualConn-SecondaryOnly-UL-#0.vec
config output-vector-precision 17
config record-eventlog false
config sim-time-limit 20s
config extends DualConnectivity-VoIP-UL
config description "dual connectivity, secondary only, Voice-over-IP (uplink)"
config *.ue[*].app[*].tos 10
config extends DualConnectivity
config description "Base configuration, do not run this config!"
config *.ue[*].numApps 1
config *.server.numApps 1
config *.server.app[*].typename VoipReceiver
config *.server.app[*].localPort 1000+ancestorIndex(0)
config *.ue[*].app[*].typename VoipSender
config *.ue[*].app[*].destAddress "\"server\""
config *.ue[*].app[*].localPort 3088+ancestorIndex(0)
config *.ue[*].app[*].destPort 1000+ancestorIndex(0)
config *.ue[*].app[*].startTime uniform(0s,0.02s)
config network simu5g.simulations.nr.networks.SingleCell_withSecondaryGnb
config sim-time-limit 20s
config description "Base configuration, do not run this config!"
config *.masterEnb.mobility.initialX 300m
config *.masterEnb.mobility.initialY 300m
config *.secondaryGnb.mobility.initialX 600m
config *.secondaryGnb.mobility.initialY 300m
config *.masterEnb.cellularNic.typename LteNicEnbD2D
config *.masterEnb.cellularNic.pdcp.typename NrPdcpEnb
config *.secondaryGnb.masterId 1
config **.dualConnectivityEnabled true
config *.*nb.numX2Apps 1
config *.*nb.x2App[*].server.localPort "5000 + ancestorIndex(1)"
config *.masterEnb.x2App[0].client.connectAddress "\"secondaryGnb%x2ppp0\""
config *.secondaryGnb.x2App[0].client.connectAddress "\"masterEnb%x2ppp0\""
config *.numUe 1
config *.ue[0].macCellId 1
config *.ue[0].masterId 1
config *.ue[0].nrMacCellId 2
config *.ue[0].nrMasterId 2
config *.ue[0].mobility.initialX 450m
config *.ue[0].mobility.initialY 350m
config sim-time-limit 20s
config seed-set 0
config output-scalar-file results/DualConn-SecondaryOnly-UL/-0.sca
config output-vector-file results/DualConn-SecondaryOnly-UL/-0.vec
config **.vector-recording false
config **.sctp.**.scalar-recording false
config **.sctp.**.vector-recording false
config **.routingRecorder.enabled false
config **.mobility.constraintAreaMaxX 1000m
config **.mobility.constraintAreaMaxY 1000m
config **.mobility.constraintAreaMinX 0m
config **.mobility.constraintAreaMinY 0m
config **.mobility.constraintAreaMinZ 0m
config **.mobility.constraintAreaMaxZ 0m
config **.mobility.initFromDisplayString false
config **.numBands 50
config **.ueTxPower 26dBm
config **.eNodeBTxPower 40dBm
config **.targetBler 0.01
config **.blerShift 5
config **.sctp.nagleEnabled false
config **.sctp.enableHeartbeats false
config *.configurator.config "xmldoc(\"./demo.xml\")"

scalar SingleCell_withSecondaryGnb.masterEnb.x2App[0].client ums 1452
scalar SingleCell_withSecondaryGnb.secondaryGnb.x2App[0].client ums 1452
scalar SingleCell_withSecondaryGnb.server.lo[0].lo rcvdPkFromHl:count 0
scalar SingleCell_withSecondaryGnb.server.lo[0].lo rcvdPkFromHl:sum(packetBytes) 0
scalar SingleCell_withSecondaryGnb.server.lo[0].lo passedUpPk:count 0
scalar SingleCell_withSecondaryGnb.server.lo[0].lo passedUpPk:sum(packetBytes) 0
scalar SingleCell_withSecondaryGnb.server.lo[0] packetDropInterfaceDown:count 0
scalar SingleCell_withSecondaryGnb.server.lo[0] packetDropInterfaceDown:sum(packetBytes) 0
scalar SingleCell_withSecondaryGnb.server.lo[0] packetDropNoCarrier:count 0
scalar SingleCell_withSecondaryGnb.server.lo[0] packetDropNoCarrier:sum(packetBytes) 0
scalar SingleCell_withSecondaryGnb.server.ppp[0].queue queueLength:last 0
scalar SingleCell_withSecondaryGnb.server.ppp[0].queue queueLength:max 0
scalar SingleCell_withSecondaryGnb.server.ppp[0].queue queueLength:timeavg 0
scalar SingleCell_withSecondaryGnb.server.ppp[0].queue queueBitLength:last 0
scalar SingleCell_withSecondaryGnb.server.ppp[0].queue queueBitLength:max 0
scalar SingleCell_withSecondaryGnb.server.ppp[0].queue queueBitLength:timeavg 0
scalar SingleCell_withSecondaryGnb.server.ppp[0].queue outgoingPackets:count 0
scalar SingleCell_withSecondaryGnb.server.ppp[0].queue outgoingPacketLengths:sum 0
scalar SingleCell_withSecondaryGnb.server.ppp[0].queue incomingPackets:count 0
scalar SingleCell_withSecondaryGnb.server.ppp[0].queue incomingPacketLengths:sum 0
scalar SingleCell_withSecondaryGnb.server.ppp[0].queue droppedPacketsQueueOverflow:count 0
scalar SingleCell_withSecondaryGnb.server.ppp[0].queue droppedPacketLengthsQueueOverflow:sum 0
scalar SingleCell_withSecondaryGnb.server.ppp[0].ppp transmissionState:timeavg 0
scalar SingleCell_withSecondaryGnb.server.ppp[0].ppp rxPkOk:count 655
scalar SingleCell_withSecondaryGnb.server.ppp[0].ppp rxPkOk:sum(packetBytes) 49125
scalar SingleCell_withSecondaryGnb.server.ppp[0].ppp txPk:count 0
scalar SingleCell_withSecondaryGnb.server.ppp[0].ppp txPk:sum(packetBytes) 0
scalar SingleCell_withSecondaryGnb.server.ppp[0].ppp rcvdPkFromHl:count 0
scalar SingleCell_withSecondaryGnb.server.ppp[0].ppp rcvdPkFromHl:sum(packetBytes) 0
scalar SingleCell_withSecondaryGnb.server.ppp[0].ppp passedUpPk:count 655
scalar SingleCell_withSecondaryGnb.server.ppp[0].ppp passedUpPk:sum(packetBytes) 44540
scalar SingleCell_withSecondaryGnb.server.ppp[0].ppp packetDropIncorrectlyReceived:count 0
scalar SingleCell_withSecondaryGnb.server.ppp[0].ppp packetDropIncorrectlyReceived:sum(packetBytes) 0
scalar SingleCell_withSecondaryGnb.server.ppp[0].ppp packetDropInterfaceDown:count 0
scalar SingleCell_withSecondaryGnb.server.ppp[0].ppp packetDropInterfaceDown:sum(packetBytes) 0
scalar SingleCell_withSecondaryGnb.server.ppp[0] packetDropInterfaceDown:count 0
scalar SingleCell_withSecondaryGnb.server.ppp[0] packetDropInterfaceDown:sum(packetBytes) 0
scalar SingleCell_withSecondaryGnb.server.ppp[0] packetDropNoCarrier:count 0
scalar SingleCell_withSecondaryGnb.server.ppp[0] packetDropNoCarrier:sum(packetBytes) 0
scalar SingleCell_withSecondaryGnb.server.ipv4.ip packetDropAddressResolutionFailed:count 0
scalar SingleCell_withSecondaryGnb.server.ipv4.ip packetDropAddressResolutionFailed:sum(packetBytes) 0
scalar SingleCell_withSecondaryGnb.server.ipv4.ip packetDropHopLimitReached:count 0
scalar SingleCell_withSecondaryGnb.server.ipv4.ip packetDropHopLimitReached:sum(packetBytes) 0
scalar SingleCell_withSecondaryGnb.server.ipv4.ip packetDropForwardingDisabled:count 0
scalar SingleCell_withSecondaryGnb.server.ipv4.ip packetDropForwardingDisabled:sum(packetBytes) 0
scalar SingleCell_withSecondaryGnb.server.ipv4.ip packetDropNoInterfaceFound:count 0
scalar SingleCell_withSecondaryGnb.server.ipv4.ip packetDropNoInterfaceFound:sum(packetBytes) 0
scalar SingleCell_withSecondaryGnb.server.ipv4.ip packetDropNoRouteFound:count 0
scalar SingleCell_withSecondaryGnb.server.ipv4.ip packetDropNoRouteFound:sum(packetBytes) 0
scalar SingleCell_withSecondaryGnb.server.ipv4.ip packetDropUndefined:count 0
scalar SingleCell_withSecondaryGnb.server.ipv4.ip packetDropUndefined:sum(packetBytes) 0
scalar SingleCell_withSecondaryGnb.server.ipv4.arp arpResolutionFailed:count 0
scalar SingleCell_withSecondaryGnb.server.ipv4.arp arpResolutionCompleted:count 0
scalar SingleCell_withSecondaryGnb.server.ipv4.arp arpResolutionInitiated:count 0
scalar SingleCell_withSecondaryGnb.server.ipv4.arp arpReplySent:count 0
scalar SingleCell_withSecondaryGnb.server.ipv4.arp arpReplySent:sum(packetBytes) 0
scalar SingleCell_withSecondaryGnb.server.ipv4.arp arpRequestSent:count 0
scalar SingleCell_withSecondaryGnb.server.ipv4.arp arpRequestSent:sum(packetBytes) 0
scalar SingleCell_withSecondaryGnb.server.udp packetReceived:count 655
scalar SingleCell_withSecondaryGnb.server.udp packetReceived:sum(packetBytes) 31440
scalar SingleCell_withSecondaryGnb.server.udp packetSent:count 0
scalar SingleCell_withSecondaryGnb.server.udp packetSent:sum(packetBytes) 0
scalar SingleCell_withSecondaryGnb.server.udp passedUpPk:count 655
scalar SingleCell_withSecondaryGnb.server.udp droppedPkWrongPort:count 0
scalar SingleCell_withSecondaryGnb.server.udp droppedPkBadChecksum:count 0
scalar SingleCell_withSecondaryGnb.server.app[0] voIPReceivedThroughput:mean 1345.9010001695706
scalar SingleCell_withSecondaryGnb.server.app[0] voIPPlayoutLoss:mean 0
scalar SingleCell_withSecondaryGnb.server.app[0] voIPJitter:mean -nan
scalar SingleCell_withSecondaryGnb.server.app[0] voIPTaildropLoss:mean 0
scalar SingleCell_withSecondaryGnb.server.app[0] voIPMos:mean 4.4092858240000004
scalar SingleCell_withSecondaryGnb.server.app[0] voIPPlayoutDelay:mean 0
scalar SingleCell_withSecondaryGnb.server.app[0] voIPFrameDelay:mean 0.008400715737870143
scalar SingleCell_withSecondaryGnb.server.app[0] voIPFrameLoss:mean 0
scalar SingleCell_withSecondaryGnb.router.lo[0].lo rcvdPkFromHl:count 0
scalar SingleCell_withSecondaryGnb.router.lo[0].lo rcvdPkFromHl:sum(packetBytes) 0
scalar SingleCell_withSecondaryGnb.router.lo[0].lo passedUpPk:count 0
scalar SingleCell_withSecondaryGnb.router.lo[0].lo passedUpPk:sum(packetBytes) 0
scalar SingleCell_withSecondaryGnb.router.lo[0] packetDropInterfaceDown:count 0
scalar SingleCell_withSecondaryGnb.router.lo[0] packetDropInterfaceDown:sum(packetBytes) 0
scalar SingleCell_withSecondaryGnb.router.lo[0] packetDropNoCarrier:count 0
scalar SingleCell_withSecondaryGnb.router.lo[0] packetDropNoCarrier:sum(packetBytes) 0
scalar SingleCell_withSecondaryGnb.router.ppp[0].queue queueLength:last 0
scalar SingleCell_withSecondaryGnb.router.ppp[0].queue queueLength:max 0
scalar SingleCell_withSecondaryGnb.router.ppp[0].queue queueLength:timeavg 0
scalar SingleCell_withSecondaryGnb.router.ppp[0].queue queueBitLength:last 0
scalar SingleCell_withSecondaryGnb.router.ppp[0].queue queueBitLength:max 0
scalar SingleCell_withSecondaryGnb.router.ppp[0].queue queueBitLength:timeavg 0
scalar SingleCell_withSecondaryGnb.router.ppp[0].queue outgoingPackets:count 655
scalar SingleCell_withSecondaryGnb.router.ppp[0].queue outgoingPacketLengths:sum 356320
scalar SingleCell_withSecondaryGnb.router.ppp[0].queue incomingPackets:count 655
scalar SingleCell_withSecondaryGnb.router.ppp[0].queue incomingPacketLengths:sum 356320
scalar SingleCell_withSecondaryGnb.router.ppp[0].queue droppedPacketsQueueOverflow:count 0
scalar SingleCell_withSecondaryGnb.router.ppp[0].queue droppedPacketLengthsQueueOverflow:sum 0
scalar SingleCell_withSecondaryGnb.router.ppp[0].ppp transmissionState:timeavg 1.9650000000000104e-06
scalar SingleCell_withSecondaryGnb.router.ppp[0].ppp rxPkOk:count 0
scalar SingleCell_withSecondaryGnb.router.ppp[0].ppp rxPkOk:sum(packetBytes) 0
scalar SingleCell_withSecondaryGnb.router.ppp[0].ppp txPk:count 655
scalar SingleCell_withSecondaryGnb.router.ppp[0].ppp txPk:sum(packetBytes) 49125
scalar SingleCell_withSecondaryGnb.router.ppp[0].ppp rcvdPkFromHl:count 655
scalar SingleCell_withSecondaryGnb.router.ppp[0].ppp rcvdPkFromHl:sum(packetBytes) 44540
scalar SingleCell_withSecondaryGnb.router.ppp[0].ppp passedUpPk:count 0
scalar SingleCell_withSecondaryGnb.router.ppp[0].ppp passedUpPk:sum(packetBytes) 0
scalar SingleCell_withSecondaryGnb.router.ppp[0].ppp packetDropIncorrectlyReceived:count 0
scalar SingleCell_withSecondaryGnb.router.ppp[0].ppp packetDropIncorrectlyReceived:sum(packetBytes) 0
scalar SingleCell_withSecondaryGnb.router.ppp[0].ppp packetDropInterfaceDown:count 0
scalar SingleCell_withSecondaryGnb.router.ppp[0].ppp packetDropInterfaceDown:sum(packetBytes) 0
scalar SingleCell_withSecondaryGnb.router.ppp[0] packetDropInterfaceDown:count 0
scalar SingleCell_withSecondaryGnb.router.ppp[0] packetDropInterfaceDown:sum(packetBytes) 0
scalar SingleCell_withSecondaryGnb.router.ppp[0] packetDropNoCarrier:count 0
scalar SingleCell_withSecondaryGnb.router.ppp[0] packetDropNoCarrier:sum(packetBytes) 0
scalar SingleCell_withSecondaryGnb.router.ppp[1].queue queueLength:last 0
scalar SingleCell_withSecondaryGnb.router.ppp[1].queue queueLength:max 0
scalar SingleCell_withSecondaryGnb.router.ppp[1].queue queueLength:timeavg 0
scalar SingleCell_withSecondaryGnb.router.ppp[1].queue queueBitLength:last 0
scalar SingleCell_withSecondaryGnb.router.ppp[1].queue queueBitLength:max 0
scalar SingleCell_withSecondaryGnb.router.ppp[1].queue queueBitLength:timeavg 0
scalar SingleCell_withSecondaryGnb.router.ppp[1].queue outgoingPackets:count 0
scalar SingleCell_withSecondaryGnb.router.ppp[1].queue outgoingPacketLengths:sum 0
scalar SingleCell_withSecondaryGnb.router.ppp[1].queue incomingPackets:count 0
scalar SingleCell_withSecondaryGnb.router.ppp[1].queue incomingPacketLengths:sum 0
scalar SingleCell_withSecondaryGnb.router.ppp[1].queue droppedPacketsQueueOverflow:count 0
scalar SingleCell_withSecondaryGnb.router.ppp[1].queue droppedPacketLengthsQueueOverflow:sum 0
scalar SingleCell_withSecondaryGnb.router.ppp[1].ppp transmissionState:timeavg 0
scalar SingleCell_withSecondaryGnb.router.ppp[1].ppp rxPkOk:count 655
scalar SingleCell_withSecondaryGnb.router.ppp[1].ppp rxPkOk:sum(packetBytes) 49125
scalar SingleCell_withSecondaryGnb.router.ppp[1].ppp txPk:count 0
scalar SingleCell_withSecondaryGnb.router.ppp[1].ppp txPk:sum(packetBytes) 0
scalar SingleCell_withSecondaryGnb.router.ppp[1].ppp rcvdPkFromHl:count 0
scalar SingleCell_withSecondaryGnb.router.ppp[1].ppp rcvdPkFromHl:sum(packetBytes) 0
scalar SingleCell_withSecondaryGnb.router.ppp[1].ppp passedUpPk:count 655
scalar SingleCell_withSecondaryGnb.router.ppp[1].ppp passedUpPk:sum(packetBytes) 44540
scalar SingleCell_withSecondaryGnb.router.ppp[1].ppp packetDropIncorrectlyReceived:count 0
scalar SingleCell_withSecondaryGnb.router.ppp[1].ppp packetDropIncorrectlyReceived:sum(packetBytes) 0
scalar SingleCell_withSecondaryGnb.router.ppp[1].ppp packetDropInterfaceDown:count 0
scalar SingleCell_withSecondaryGnb.router.ppp[1].ppp packetDropInterfaceDown:sum(packetBytes) 0
scalar SingleCell_withSecondaryGnb.router.ppp[1] packetDropInterfaceDown:count 0
scalar SingleCell_withSecondaryGnb.router.ppp[1] packetDropInterfaceDown:sum(packetBytes) 0
scalar SingleCell_withSecondaryGnb.router.ppp[1] packetDropNoCarrier:count 0
scalar SingleCell_withSecondaryGnb.router.ppp[1] packetDropNoCarrier:sum(packetBytes) 0
scalar SingleCell_withSecondaryGnb.router.ipv4.ip packetDropAddressResolutionFailed:count 0
scalar SingleCell_withSecondaryGnb.router.ipv4.ip packetDropAddressResolutionFailed:sum(packetBytes) 0
scalar SingleCell_withSecondaryGnb.router.ipv4.ip packetDropHopLimitReached:count 0
scalar SingleCell_withSecondaryGnb.router.ipv4.ip packetDropHopLimitReached:sum(packetBytes) 0
scalar SingleCell_withSecondaryGnb.router.ipv4.ip packetDropForwardingDisabled:count 0
scalar SingleCell_withSecondaryGnb.router.ipv4.ip packetDropForwardingDisabled:sum(packetBytes) 0
scalar SingleCell_withSecondaryGnb.router.ipv4.ip packetDropNoInterfaceFound:count 0
scalar SingleCell_withSecondaryGnb.router.ipv4.ip packetDropNoInterfaceFound:sum(packetBytes) 0
scalar SingleCell_withSecondaryGnb.router.ipv4.ip packetDropNoRouteFound:count 0
scalar SingleCell_withSecondaryGnb.router.ipv4.ip packetDropNoRouteFound:sum(packetBytes) 0
scalar SingleCell_withSecondaryGnb.router.ipv4.ip packetDropUndefined:count 0
scalar SingleCell_withSecondaryGnb.router.ipv4.ip packetDropUndefined:sum(packetBytes) 0
scalar SingleCell_withSecondaryGnb.router.ipv4.arp arpResolutionFailed:count 0
scalar SingleCell_withSecondaryGnb.router.ipv4.arp arpResolutionCompleted:count 0
scalar SingleCell_withSecondaryGnb.router.ipv4.arp arpResolutionInitiated:count 0
scalar SingleCell_withSecondaryGnb.router.ipv4.arp arpReplySent:count 0
scalar SingleCell_withSecondaryGnb.router.ipv4.arp arpReplySent:sum(packetBytes) 0
scalar SingleCell_withSecondaryGnb.router.ipv4.arp arpRequestSent:count 0
scalar SingleCell_withSecondaryGnb.router.ipv4.arp arpRequestSent:sum(packetBytes) 0
scalar SingleCell_withSecondaryGnb.pgw.lo[0].lo rcvdPkFromHl:count 0
scalar SingleCell_withSecondaryGnb.pgw.lo[0].lo rcvdPkFromHl:sum(packetBytes) 0
scalar SingleCell_withSecondaryGnb.pgw.lo[0].lo passedUpPk:count 0
scalar SingleCell_withSecondaryGnb.pgw.lo[0].lo passedUpPk:sum(packetBytes) 0
scalar SingleCell_withSecondaryGnb.pgw.lo[0] packetDropInterfaceDown:count 0
scalar SingleCell_withSecondaryGnb.pgw.lo[0] packetDropInterfaceDown:sum(packetBytes) 0
scalar SingleCell_withSecondaryGnb.pgw.lo[0] packetDropNoCarrier:count 0
scalar SingleCell_withSecondaryGnb.pgw.lo[0] packetDropNoCarrier:sum(packetBytes) 0
scalar SingleCell_withSecondaryGnb.pgw.ppp[0].queue queueLength:last 0
scalar SingleCell_withSecondaryGnb.pgw.ppp[0].queue queueLength:max 0
scalar SingleCell_withSecondaryGnb.pgw.ppp[0].queue queueLength:timeavg 0
scalar SingleCell_withSecondaryGnb.pgw.ppp[0].queue queueBitLength:last 0
scalar SingleCell_withSecondaryGnb.pgw.ppp[0].queue queueBitLength:max 0
scalar SingleCell_withSecondaryGnb.pgw.ppp[0].queue queueBitLength:timeavg 0
scalar SingleCell_withSecondaryGnb.pgw.ppp[0].queue outgoingPackets:count 0
scalar SingleCell_withSecondaryGnb.pgw.ppp[0].queue outgoingPacketLengths:sum 0
scalar SingleCell_withSecondaryGnb.pgw.ppp[0].queue incomingPackets:count 0
scalar SingleCell_withSecondaryGnb.pgw.ppp[0].queue incomingPacketLengths:sum 0
scalar SingleCell_withSecondaryGnb.pgw.ppp[0].queue droppedPacketsQueueOverflow:count 0
scalar SingleCell_withSecondaryGnb.pgw.ppp[0].queue droppedPacketLengthsQueueOverflow:sum 0
scalar SingleCell_withSecondaryGnb.pgw.ppp[0].ppp transmissionState:timeavg 0
scalar SingleCell_withSecondaryGnb.pgw.ppp[0].ppp rxPkOk:count 655
scalar SingleCell_withSecondaryGnb.pgw.ppp[0].ppp rxPkOk:sum(packetBytes) 72705
scalar SingleCell_withSecondaryGnb.pgw.ppp[0].ppp txPk:count 0
scalar SingleCell_withSecondaryGnb.pgw.ppp[0].ppp txPk:sum(packetBytes) 0
scalar SingleCell_withSecondaryGnb.pgw.ppp[0].ppp rcvdPkFromHl:count 0
scalar SingleCell_withSecondaryGnb.pgw.ppp[0].ppp rcvdPkFromHl:sum(packetBytes) 0
scalar SingleCell_withSecondaryGnb.pgw.ppp[0].ppp passedUpPk:count 655
scalar SingleCell_withSecondaryGnb.pgw.ppp[0].ppp passedUpPk:sum(packetBytes) 68120
scalar SingleCell_withSecondaryGnb.pgw.ppp[0].ppp packetDropIncorrectlyReceived:count 0
scalar SingleCell_withSecondaryGnb.pgw.ppp[0].ppp packetDropIncorrectlyReceived:sum(packetBytes) 0
scalar SingleCell_withSecondaryGnb.pgw.ppp[0].ppp packetDropInterfaceDown:count 0
scalar SingleCell_withSecondaryGnb.pgw.ppp[0].ppp packetDropInterfaceDown:sum(packetBytes) 0
scalar SingleCell_withSecondaryGnb.pgw.ppp[0] packetDropInterfaceDown:count 0
scalar SingleCell_withSecondaryGnb.pgw.ppp[0] packetDropInterfaceDown:sum(packetBytes) 0
scalar SingleCell_withSecondaryGnb.pgw.ppp[0] packetDropNoCarrier:count 0
scalar SingleCell_withSecondaryGnb.pgw.ppp[0] packetDropNoCarrier:sum(packetBytes) 0
scalar SingleCell_withSecondaryGnb.pgw.ipv4.ip packetDropAddressResolutionFailed:count 0
scalar SingleCell_withSecondaryGnb.pgw.ipv4.ip packetDropAddressResolutionFailed:sum(packetBytes) 0
scalar SingleCell_withSecondaryGnb.pgw.ipv4.ip packetDropHopLimitReached:count 0
scalar SingleCell_withSecondaryGnb.pgw.ipv4.ip packetDropHopLimitReached:sum(packetBytes) 0
scalar SingleCell_withSecondaryGnb.pgw.ipv4.ip packetDropForwardingDisabled:count 0
scalar SingleCell_withSecondaryGnb.pgw.ipv4.ip packetDropForwardingDisabled:sum(packetBytes) 0
scalar SingleCell_withSecondaryGnb.pgw.ipv4.ip packetDropNoInterfaceFound:count 0
scalar SingleCell_withSecondaryGnb.pgw.ipv4.ip packetDropNoInterfaceFound:sum(packetBytes) 0
scalar SingleCell_withSecondaryGnb.pgw.ipv4.ip packetDropNoRouteFound:count 0
scalar SingleCell_withSecondaryGnb.pgw.ipv4.ip packetDropNoRouteFound:sum(packetBytes) 0
scalar SingleCell_withSecondaryGnb.pgw.ipv4.ip packetDropUndefined:count 0
scalar SingleCell_withSecondaryGnb.pgw.ipv4.ip packetDropUndefined:sum(packetBytes) 0
scalar SingleCell_withSecondaryGnb.pgw.ipv4.arp arpResolutionFailed:count 0
scalar SingleCell_withSecondaryGnb.pgw.ipv4.arp arpResolutionCompleted:count 0
scalar SingleCell_withSecondaryGnb.pgw.ipv4.arp arpResolutionInitiated:count 0
scalar SingleCell_withSecondaryGnb.pgw.ipv4.arp arpReplySent:count 0
scalar SingleCell_withSecondaryGnb.pgw.ipv4.arp arpReplySent:sum(packetBytes) 0
scalar SingleCell_withSecondaryGnb.pgw.ipv4.arp arpRequestSent:count 0
scalar SingleCell_withSecondaryGnb.pgw.ipv4.arp arpRequestSent:sum(packetBytes) 0
scalar SingleCell_withSecondaryGnb.pgw.pppIf.queue queueLength:last 0
scalar SingleCell_withSecondaryGnb.pgw.pppIf.queue queueLength:max 0
scalar SingleCell_withSecondaryGnb.pgw.pppIf.queue queueLength:timeavg 0
scalar SingleCell_withSecondaryGnb.pgw.pppIf.queue queueBitLength:last 0
scalar SingleCell_withSecondaryGnb.pgw.pppIf.queue queueBitLength:max 0
scalar SingleCell_withSecondaryGnb.pgw.pppIf.queue queueBitLength:timeavg 0
scalar SingleCell_withSecondaryGnb.pgw.pppIf.queue outgoingPackets:count 655
scalar SingleCell_withSecondaryGnb.pgw.pppIf.queue outgoingPacketLengths:sum 356320
scalar SingleCell_withSecondaryGnb.pgw.pppIf.queue incomingPackets:count 655
scalar SingleCell_withSecondaryGnb.pgw.pppIf.queue incomingPacketLengths:sum 356320
scalar SingleCell_withSecondaryGnb.pgw.pppIf.queue droppedPacketsQueueOverflow:count 0
scalar SingleCell_withSecondaryGnb.pgw.pppIf.queue droppedPacketLengthsQueueOverflow:sum 0
scalar SingleCell_withSecondaryGnb.pgw.pppIf.ppp transmissionState:timeavg 1.9650000000000104e-06
scalar SingleCell_withSecondaryGnb.pgw.pppIf.ppp rxPkOk:count 0
scalar SingleCell_withSecondaryGnb.pgw.pppIf.ppp rxPkOk:sum(packetBytes) 0
scalar SingleCell_withSecondaryGnb.pgw.pppIf.ppp txPk:count 655
scalar SingleCell_withSecondaryGnb.pgw.pppIf.ppp txPk:sum(packetBytes) 49125
scalar SingleCell_withSecondaryGnb.pgw.pppIf.ppp rcvdPkFromHl:count 655
scalar SingleCell_withSecondaryGnb.pgw.pppIf.ppp rcvdPkFromHl:sum(packetBytes) 44540
scalar SingleCell_withSecondaryGnb.pgw.pppIf.ppp passedUpPk:count 0
scalar SingleCell_withSecondaryGnb.pgw.pppIf.ppp passedUpPk:sum(packetBytes) 0
scalar SingleCell_withSecondaryGnb.pgw.pppIf.ppp packetDropIncorrectlyReceived:count 0
scalar SingleCell_withSecondaryGnb.pgw.pppIf.ppp packetDropIncorrectlyReceived:sum(packetBytes) 0
scalar SingleCell_withSecondaryGnb.pgw.pppIf.ppp packetDropInterfaceDown:count 0
scalar SingleCell_withSecondaryGnb.pgw.pppIf.ppp packetDropInterfaceDown:sum(packetBytes) 0
scalar SingleCell_withSecondaryGnb.pgw.pppIf packetDropInterfaceDown:count 0
scalar SingleCell_withSecondaryGnb.pgw.pppIf packetDropInterfaceDown:sum(packetBytes) 0
scalar SingleCell_withSecondaryGnb.pgw.pppIf packetDropNoCarrier:count 0
scalar SingleCell_withSecondaryGnb.pgw.pppIf packetDropNoCarrier:sum(packetBytes) 0
scalar SingleCell_withSecondaryGnb.pgw.udp packetReceived:count 655
scalar SingleCell_withSecondaryGnb.pgw.udp packetReceived:sum(packetBytes) 55020
scalar SingleCell_withSecondaryGnb.pgw.udp packetSent:count 0
scalar SingleCell_withSecondaryGnb.pgw.udp packetSent:sum(packetBytes) 0
scalar SingleCell_withSecondaryGnb.pgw.udp passedUpPk:count 655
scalar SingleCell_withSecondaryGnb.pgw.udp droppedPkWrongPort:count 0
scalar SingleCell_withSecondaryGnb.pgw.udp droppedPkBadChecksum:count 0
scalar SingleCell_withSecondaryGnb.masterEnb.cellularNic.pdcp sentPacketToLowerLayer:count 0
scalar SingleCell_withSecondaryGnb.masterEnb.cellularNic.pdcp sentPacketToLowerLayer:sum(packetBytes) 0
scalar SingleCell_withSecondaryGnb.masterEnb.cellularNic.pdcp sentPacketToUpperLayer:count 655
scalar SingleCell_withSecondaryGnb.masterEnb.cellularNic.pdcp sentPacketToUpperLayer:sum(packetBytes) 44540
scalar SingleCell_withSecondaryGnb.masterEnb.cellularNic.pdcp receivedPacketFromLowerLayer:count 655
scalar SingleCell_withSecondaryGnb.masterEnb.cellularNic.pdcp receivedPacketFromLowerLayer:sum(packetBytes) 45195
scalar SingleCell_withSecondaryGnb.masterEnb.cellularNic.pdcp receivedPacketFromUpperLayer:count 0
scalar SingleCell_withSecondaryGnb.masterEnb.cellularNic.pdcp receivedPacketFromUpperLayer:sum(packetBytes) 0
scalar SingleCell_withSecondaryGnb.masterEnb.cellularNic.rlc.tm rlcPacketLossUl:mean -nan
scalar SingleCell_withSecondaryGnb.masterEnb.cellularNic.rlc.tm rlcPacketLossUl:sum 0
scalar SingleCell_withSecondaryGnb.masterEnb.cellularNic.rlc.tm rlcPacketLossDl:mean -nan
scalar SingleCell_withSecondaryGnb.masterEnb.cellularNic.rlc.tm rlcPacketLossDl:sum 0
scalar SingleCell_withSecondaryGnb.masterEnb.cellularNic.rlc.tm sentPacketToLowerLayer:count 0
scalar SingleCell_withSecondaryGnb.masterEnb.cellularNic.rlc.tm sentPacketToLowerLayer:sum(packetBytes) 0
scalar SingleCell_withSecondaryGnb.masterEnb.cellularNic.rlc.tm sentPacketToUpperLayer:count 0
scalar SingleCell_withSecondaryGnb.masterEnb.cellularNic.rlc.tm sentPacketToUpperLayer:sum(packetBytes) 0
scalar SingleCell_withSecondaryGnb.masterEnb.cellularNic.rlc.tm receivedPacketFromLowerLayer:count 0
scalar SingleCell_withSecondaryGnb.masterEnb.cellularNic.rlc.tm receivedPacketFromLowerLayer:sum(packetBytes) 0
scalar SingleCell_withSecondaryGnb.masterEnb.cellularNic.rlc.tm receivedPacketFromUpperLayer:count 0
scalar SingleCell_withSecondaryGnb.masterEnb.cellularNic.rlc.tm receivedPacketFromUpperLayer:sum(packetBytes) 0
scalar SingleCell_withSecondaryGnb.masterEnb.cellularNic.rlc.um rlcCellThroughputD2D:mean -nan
scalar SingleCell_withSecondaryGnb.masterEnb.cellularNic.rlc.um rlcCellPacketLossD2D:mean -nan
scalar SingleCell_withSecondaryGnb.masterEnb.cellularNic.rlc.um rlcPduThroughputD2D:mean -nan
scalar SingleCell_withSecondaryGnb.masterEnb.cellularNic.rlc.um rlcPduDelayD2D:mean -nan
scalar SingleCell_withSecondaryGnb.masterEnb.cellularNic.rlc.um rlcThroughputD2D:mean -nan
scalar SingleCell_withSecondaryGnb.masterEnb.cellularNic.rlc.um rlcDelayD2D:mean -nan
scalar SingleCell_withSecondaryGnb.masterEnb.cellularNic.rlc.um rlcPduPacketLossD2D:mean -nan
scalar SingleCell_withSecondaryGnb.masterEnb.cellularNic.rlc.um rlcPacketLossD2D:mean -nan
scalar SingleCell_withSecondaryGnb.masterEnb.cellularNic.rlc.um rlcPacketLossTotal:mean -nan
scalar SingleCell_withSecondaryGnb.masterEnb.cellularNic.rlc.um rlcCellThroughputUl:mean -nan
scalar SingleCell_withSecondaryGnb.masterEnb.cellularNic.rlc.um rlcCellThroughputDl:mean -nan
scalar SingleCell_withSecondaryGnb.masterEnb.cellularNic.rlc.um rlcPduThroughputUl:mean -nan
scalar SingleCell_withSecondaryGnb.masterEnb.cellularNic.rlc.um rlcPduThroughputDl:mean -nan
scalar SingleCell_withSecondaryGnb.masterEnb.cellularNic.rlc.um rlcPduDelayUl:mean -nan
scalar SingleCell_withSecondaryGnb.masterEnb.cellularNic.rlc.um rlcPduDelayDl:mean -nan
scalar SingleCell_withSecondaryGnb.masterEnb.cellularNic.rlc.um rlcThroughputUl:mean -nan
scalar SingleCell_withSecondaryGnb.masterEnb.cellularNic.rlc.um rlcThroughputDl:mean -nan
scalar SingleCell_withSecondaryGnb.masterEnb.cellularNic.rlc.um rlcDelayUl:mean -nan
scalar SingleCell_withSecondaryGnb.masterEnb.cellularNic.rlc.um rlcDelayDl:mean -nan
scalar SingleCell_withSecondaryGnb.masterEnb.cellularNic.rlc.um rlcPduPacketLossUl:mean -nan
scalar SingleCell_withSecondaryGnb.masterEnb.cellularNic.rlc.um rlcPduPacketLossDl:mean -nan
scalar SingleCell_withSecondaryGnb.masterEnb.cellularNic.rlc.um rlcPacketLossUl:mean -nan
scalar SingleCell_withSecondaryGnb.masterEnb.cellularNic.rlc.um rlcPacketLossUl:sum 0
scalar SingleCell_withSecondaryGnb.masterEnb.cellularNic.rlc.um rlcPacketLossDl:mean -nan
scalar SingleCell_withSecondaryGnb.masterEnb.cellularNic.rlc.um rlcPacketLossDl:sum 0
scalar SingleCell_withSecondaryGnb.masterEnb.cellularNic.rlc.um rlcCellPacketLossUl:mean -nan
scalar SingleCell_withSecondaryGnb.masterEnb.cellularNic.rlc.um rlcCellPacketLossDl:mean -nan
scalar SingleCell_withSecondaryGnb.masterEnb.cellularNic.rlc.um sentPacketToLowerLayer:count 0
scalar SingleCell_withSecondaryGnb.masterEnb.cellularNic.rlc.um sentPacketToLowerLayer:sum(packetBytes) 0
scalar SingleCell_withSecondaryGnb.masterEnb.cellularNic.rlc.um sentPacketToUpperLayer:count 0
scalar SingleCell_withSecondaryGnb.masterEnb.cellularNic.rlc.um sentPacketToUpperLayer:sum(packetBytes) 0
scalar SingleCell_withSecondaryGnb.masterEnb.cellularNic.rlc.um receivedPacketFromLowerLayer:count 0
scalar SingleCell_withSecondaryGnb.masterEnb.cellularNic.rlc.um receivedPacketFromLowerLayer:sum(packetBytes) 0
scalar SingleCell_withSecondaryGnb.masterEnb.cellularNic.rlc.um receivedPacketFromUpperLayer:count 0
scalar SingleCell_withSecondaryGnb.masterEnb.cellularNic.rlc.um receivedPacketFromUpperLayer:sum(packetBytes) 0
scalar SingleCell_withSecondaryGnb.masterEnb.cellularNic.rlc.am rlcPacketLossTotal:mean -nan
scalar SingleCell_withSecondaryGnb.masterEnb.cellularNic.rlc.am rlcCellThroughputUl:mean -nan
scalar SingleCell_withSecondaryGnb.masterEnb.cellularNic.rlc.am rlcCellThroughputDl:mean -nan
scalar SingleCell_withSecondaryGnb.masterEnb.cellularNic.rlc.am rlcPduThroughputUl:mean -nan
scalar SingleCell_withSecondaryGnb.masterEnb.cellularNic.rlc.am rlcPduThroughputDl:mean -nan
scalar SingleCell_withSecondaryGnb.masterEnb.cellularNic.rlc.am rlcPduDelayUl:mean -nan
scalar SingleCell_withSecondaryGnb.masterEnb.cellularNic.rlc.am rlcPduDelayDl:mean -nan
scalar SingleCell_withSecondaryGnb.masterEnb.cellularNic.rlc.am rlcThroughputUl:mean -nan
scalar SingleCell_withSecondaryGnb.masterEnb.cellularNic.rlc.am rlcThroughputDl:mean -nan
scalar SingleCell_withSecondaryGnb.masterEnb.cellularNic.rlc.am rlcDelayUl:mean -nan
scalar SingleCell_withSecondaryGnb.masterEnb.cellularNic.rlc.am rlcDelayDl:mean -nan
scalar SingleCell_withSecondaryGnb.masterEnb.cellularNic.rlc.am rlcPduPacketLossUl:mean -nan
scalar SingleCell_withSecondaryGnb.masterEnb.cellularNic.rlc.am rlcPduPacketLossDl:mean -nan
scalar SingleCell_withSecondaryGnb.masterEnb.cellularNic.rlc.am rlcPacketLossUl:mean -nan
scalar SingleCell_withSecondaryGnb.masterEnb.cellularNic.rlc.am rlcPacketLossDl:mean -nan
scalar SingleCell_withSecondaryGnb.masterEnb.cellularNic.rlc.am rlcCellPacketLossUl:mean -nan
scalar SingleCell_withSecondaryGnb.masterEnb.cellularNic.rlc.am rlcCellPacketLossDl:mean -nan
scalar SingleCell_withSecondaryGnb.masterEnb.cellularNic.mac avgServedBlocksUl:mean 0
scalar SingleCell_withSecondaryGnb.masterEnb.cellularNic.mac avgServedBlocksDl:mean 0
scalar SingleCell_withSecondaryGnb.masterEnb.cellularNic.mac macCellPacketLossD2D:mean -nan
scalar SingleCell_withSecondaryGnb.masterEnb.cellularNic.mac macCellThroughputD2D:mean -nan
scalar SingleCell_withSecondaryGnb.masterEnb.cellularNic.mac harqTxAttemptsUl:mean -nan
scalar SingleCell_withSecondaryGnb.masterEnb.cellularNic.mac harqTxAttemptsDl:mean -nan
scalar SingleCell_withSecondaryGnb.masterEnb.cellularNic.mac harqErrorRate_4th_Ul:mean -nan
scalar SingleCell_withSecondaryGnb.masterEnb.cellularNic.mac harqErrorRate_4th_Dl:mean -nan
scalar SingleCell_withSecondaryGnb.masterEnb.cellularNic.mac harqErrorRate_3rd_Ul:mean -nan
scalar SingleCell_withSecondaryGnb.masterEnb.cellularNic.mac harqErrorRate_3rd_Dl:mean -nan
scalar SingleCell_withSecondaryGnb.masterEnb.cellularNic.mac harqErrorRate_2nd_Ul:mean -nan
scalar SingleCell_withSecondaryGnb.masterEnb.cellularNic.mac harqErrorRate_2nd_Dl:mean -nan
scalar SingleCell_withSecondaryGnb.masterEnb.cellularNic.mac harqErrorRate_1st_Ul:mean -nan
scalar SingleCell_withSecondaryGnb.masterEnb.cellularNic.mac harqErrorRate_1st_Dl:mean -nan
scalar SingleCell_withSecondaryGnb.masterEnb.cellularNic.mac harqErrorRateUl:mean -nan
scalar SingleCell_withSecondaryGnb.masterEnb.cellularNic.mac harqErrorRateDl:mean -nan
scalar SingleCell_withSecondaryGnb.masterEnb.cellularNic.mac macCellPacketLossUl:mean -nan
scalar SingleCell_withSecondaryGnb.masterEnb.cellularNic.mac macCellPacketLossDl:mean -nan
scalar SingleCell_withSecondaryGnb.masterEnb.cellularNic.mac macPacketLossUl:mean -nan
scalar SingleCell_withSecondaryGnb.masterEnb.cellularNic.mac macPacketLossDl:mean -nan
scalar SingleCell_withSecondaryGnb.masterEnb.cellularNic.mac macThroughputUl:mean -nan
scalar SingleCell_withSecondaryGnb.masterEnb.cellularNic.mac macThroughputDl:mean -nan
scalar SingleCell_withSecondaryGnb.masterEnb.cellularNic.mac macDelayUl:mean -nan
scalar SingleCell_withSecondaryGnb.masterEnb.cellularNic.mac macDelayDl:mean -nan
scalar SingleCell_withSecondaryGnb.masterEnb.cellularNic.mac macCellThroughputUl:mean -nan
scalar SingleCell_withSecondaryGnb.masterEnb.cellularNic.mac macCellThroughputDl:mean -nan
scalar SingleCell_withSecondaryGnb.masterEnb.cellularNic.mac sentPacketToLowerLayer:count 0
scalar SingleCell_withSecondaryGnb.masterEnb.cellularNic.mac sentPacketToLowerLayer:sum(packetBytes) 0
scalar SingleCell_withSecondaryGnb.masterEnb.cellularNic.mac sentPacketToUpperLayer:count 0
scalar SingleCell_withSecondaryGnb.masterEnb.cellularNic.mac sentPacketToUpperLayer:sum(packetBytes) 0
scalar SingleCell_withSecondaryGnb.masterEnb.cellularNic.mac receivedPacketFromLowerLayer:count 3334
scalar SingleCell_withSecondaryGnb.masterEnb.cellularNic.mac receivedPacketFromLowerLayer:sum(packetBytes) 3334
scalar SingleCell_withSecondaryGnb.masterEnb.cellularNic.mac receivedPacketFromUpperLayer:count 0
scalar SingleCell_withSecondaryGnb.masterEnb.cellularNic.mac receivedPacketFromUpperLayer:sum(packetBytes) 0
scalar SingleCell_withSecondaryGnb.masterEnb.cellularNic.mac macBufferOverFlowD2D:mean -nan
scalar SingleCell_withSecondaryGnb.masterEnb.cellularNic.mac macBufferOverFlowUl:mean -nan
scalar SingleCell_withSecondaryGnb.masterEnb.cellularNic.mac macBufferOverFlowDl:mean -nan
scalar SingleCell_withSecondaryGnb.masterEnb.cellularNic.channelModel[0] measuredSinrUl:mean -nan
scalar SingleCell_withSecondaryGnb.masterEnb.cellularNic.channelModel[0] measuredSinrDl:mean -nan
scalar SingleCell_withSecondaryGnb.masterEnb.cellularNic.channelModel[0] rcvdSinrD2D:mean -nan
scalar SingleCell_withSecondaryGnb.masterEnb.cellularNic.channelModel[0] rcvdSinrUl:mean -nan
scalar SingleCell_withSecondaryGnb.masterEnb.cellularNic.channelModel[0] rcvdSinrDl:mean -nan
scalar SingleCell_withSecondaryGnb.masterEnb.cellularNic packetDropInterfaceDown:count 0
scalar SingleCell_withSecondaryGnb.masterEnb.cellularNic packetDropInterfaceDown:sum(packetBytes) 0
scalar SingleCell_withSecondaryGnb.masterEnb.cellularNic packetDropNoCarrier:count 0
scalar SingleCell_withSecondaryGnb.masterEnb.cellularNic packetDropNoCarrier:sum(packetBytes) 0
scalar SingleCell_withSecondaryGnb.masterEnb.pppIf.queue queueLength:last 0
scalar SingleCell_withSecondaryGnb.masterEnb.pppIf.queue queueLength:max 0
scalar SingleCell_withSecondaryGnb.masterEnb.pppIf.queue queueLength:timeavg 0
scalar SingleCell_withSecondaryGnb.masterEnb.pppIf.queue queueBitLength:last 0
scalar SingleCell_withSecondaryGnb.masterEnb.pppIf.queue queueBitLength:max 0
scalar SingleCell_withSecondaryGnb.masterEnb.pppIf.queue queueBitLength:timeavg 0
scalar SingleCell_withSecondaryGnb.masterEnb.pppIf.queue outgoingPackets:count 655
scalar SingleCell_withSecondaryGnb.masterEnb.pppIf.queue outgoingPacketLengths:sum 544960
scalar SingleCell_withSecondaryGnb.masterEnb.pppIf.queue incomingPackets:count 655
scalar SingleCell_withSecondaryGnb.masterEnb.pppIf.queue incomingPacketLengths:sum 544960
scalar SingleCell_withSecondaryGnb.masterEnb.pppIf.queue droppedPacketsQueueOverflow:count 0
scalar SingleCell_withSecondaryGnb.masterEnb.pppIf.queue droppedPacketLengthsQueueOverflow:sum 0
scalar SingleCell_withSecondaryGnb.masterEnb.pppIf.ppp transmissionState:timeavg 2.9081999999999847e-06
scalar SingleCell_withSecondaryGnb.masterEnb.pppIf.ppp rxPkOk:count 0
scalar SingleCell_withSecondaryGnb.masterEnb.pppIf.ppp rxPkOk:sum(packetBytes) 0
scalar SingleCell_withSecondaryGnb.masterEnb.pppIf.ppp txPk:count 655
scalar SingleCell_withSecondaryGnb.masterEnb.pppIf.ppp txPk:sum(packetBytes) 72705
scalar SingleCell_withSecondaryGnb.masterEnb.pppIf.ppp rcvdPkFromHl:count 655
scalar SingleCell_withSecondaryGnb.masterEnb.pppIf.ppp rcvdPkFromHl:sum(packetBytes) 68120
scalar SingleCell_withSecondaryGnb.masterEnb.pppIf.ppp passedUpPk:count 0
scalar SingleCell_withSecondaryGnb.masterEnb.pppIf.ppp passedUpPk:sum(packetBytes) 0
scalar SingleCell_withSecondaryGnb.masterEnb.pppIf.ppp packetDropIncorrectlyReceived:count 0
scalar SingleCell_withSecondaryGnb.masterEnb.pppIf.ppp packetDropIncorrectlyReceived:sum(packetBytes) 0
scalar SingleCell_withSecondaryGnb.masterEnb.pppIf.ppp packetDropInterfaceDown:count 0
scalar SingleCell_withSecondaryGnb.masterEnb.pppIf.ppp packetDropInterfaceDown:sum(packetBytes) 0
scalar SingleCell_withSecondaryGnb.masterEnb.pppIf packetDropInterfaceDown:count 0
scalar SingleCell_withSecondaryGnb.masterEnb.pppIf packetDropInterfaceDown:sum(packetBytes) 0
scalar SingleCell_withSecondaryGnb.masterEnb.pppIf packetDropNoCarrier:count 0
scalar SingleCell_withSecondaryGnb.masterEnb.pppIf packetDropNoCarrier:sum(packetBytes) 0
scalar SingleCell_withSecondaryGnb.masterEnb.x2ppp[0].queue queueLength:last 0
scalar SingleCell_withSecondaryGnb.masterEnb.x2ppp[0].queue queueLength:max 0
scalar SingleCell_withSecondaryGnb.masterEnb.x2ppp[0].queue queueLength:timeavg 0
scalar SingleCell_withSecondaryGnb.masterEnb.x2ppp[0].queue queueBitLength:last 0
scalar SingleCell_withSecondaryGnb.masterEnb.x2ppp[0].queue queueBitLength:max 0
scalar SingleCell_withSecondaryGnb.masterEnb.x2ppp[0].queue queueBitLength:timeavg 0
scalar SingleCell_withSecondaryGnb.masterEnb.x2ppp[0].queue outgoingPackets:count 4
scalar SingleCell_withSecondaryGnb.masterEnb.x2ppp[0].queue outgoingPacketLengths:sum 3328
scalar SingleCell_withSecondaryGnb.masterEnb.x2ppp[0].queue incomingPackets:count 4
scalar SingleCell_withSecondaryGnb.masterEnb.x2ppp[0].queue incomingPacketLengths:sum 3328
scalar SingleCell_withSecondaryGnb.masterEnb.x2ppp[0].queue droppedPacketsQueueOverflow:count 0
scalar SingleCell_withSecondaryGnb.masterEnb.x2ppp[0].queue droppedPacketLengthsQueueOverflow:sum 0
scalar SingleCell_withSecondaryGnb.masterEnb.x2ppp[0].ppp transmissionState:timeavg 1.7759999999999998e-08
scalar SingleCell_withSecondaryGnb.masterEnb.x2ppp[0].ppp rxPkOk:count 659
scalar SingleCell_withSecondaryGnb.masterEnb.x2ppp[0].ppp rxPkOk:sum(packetBytes) 76424
scalar SingleCell_withSecondaryGnb.masterEnb.x2ppp[0].ppp txPk:count 4
scalar SingleCell_withSecondaryGnb.masterEnb.x2ppp[0].ppp txPk:sum(packetBytes) 444
scalar SingleCell_withSecondaryGnb.masterEnb.x2ppp[0].ppp rcvdPkFromHl:count 4
scalar SingleCell_withSecondaryGnb.masterEnb.x2ppp[0].ppp rcvdPkFromHl:sum(packetBytes) 416
scalar SingleCell_withSecondaryGnb.masterEnb.x2ppp[0].ppp passedUpPk:count 659
scalar SingleCell_withSecondaryGnb.masterEnb.x2ppp[0].ppp passedUpPk:sum(packetBytes) 71811
scalar SingleCell_withSecondaryGnb.masterEnb.x2ppp[0].ppp packetDropIncorrectlyReceived:count 0
scalar SingleCell_withSecondaryGnb.masterEnb.x2ppp[0].ppp packetDropIncorrectlyReceived:sum(packetBytes) 0
scalar SingleCell_withSecondaryGnb.masterEnb.x2ppp[0].ppp packetDropInterfaceDown:count 0
scalar SingleCell_withSecondaryGnb.masterEnb.x2ppp[0].ppp packetDropInterfaceDown:sum(packetBytes) 0
scalar SingleCell_withSecondaryGnb.masterEnb.x2ppp[0] packetDropInterfaceDown:count 0
scalar SingleCell_withSecondaryGnb.masterEnb.x2ppp[0] packetDropInterfaceDown:sum(packetBytes) 0
scalar SingleCell_withSecondaryGnb.masterEnb.x2ppp[0] packetDropNoCarrier:count 0
scalar SingleCell_withSecondaryGnb.masterEnb.x2ppp[0] packetDropNoCarrier:sum(packetBytes) 0
scalar SingleCell_withSecondaryGnb.masterEnb.pppMEHostIf.queue queueLength:last 0
scalar SingleCell_withSecondaryGnb.masterEnb.pppMEHostIf.queue queueLength:max 0
scalar SingleCell_withSecondaryGnb.masterEnb.pppMEHostIf.queue queueLength:timeavg 0
scalar SingleCell_withSecondaryGnb.masterEnb.pppMEHostIf.queue queueBitLength:last 0
scalar SingleCell_withSecondaryGnb.masterEnb.pppMEHostIf.queue queueBitLength:max 0
scalar SingleCell_withSecondaryGnb.masterEnb.pppMEHostIf.queue queueBitLength:timeavg 0
scalar SingleCell_withSecondaryGnb.masterEnb.pppMEHostIf.queue outgoingPackets:count 0
scalar SingleCell_withSecondaryGnb.masterEnb.pppMEHostIf.queue outgoingPacketLengths:sum 0
scalar SingleCell_withSecondaryGnb.masterEnb.pppMEHostIf.queue incomingPackets:count 0
scalar SingleCell_withSecondaryGnb.masterEnb.pppMEHostIf.queue incomingPacketLengths:sum 0
scalar SingleCell_withSecondaryGnb.masterEnb.pppMEHostIf.queue droppedPacketsQueueOverflow:count 0
scalar SingleCell_withSecondaryGnb.masterEnb.pppMEHostIf.queue droppedPacketLengthsQueueOverflow:sum 0
scalar SingleCell_withSecondaryGnb.masterEnb.pppMEHostIf.ppp transmissionState:timeavg 0
scalar SingleCell_withSecondaryGnb.masterEnb.pppMEHostIf.ppp rxPkOk:count 0
scalar SingleCell_withSecondaryGnb.masterEnb.pppMEHostIf.ppp rxPkOk:sum(packetBytes) 0
scalar SingleCell_withSecondaryGnb.masterEnb.pppMEHostIf.ppp txPk:count 0
scalar SingleCell_withSecondaryGnb.masterEnb.pppMEHostIf.ppp txPk:sum(packetBytes) 0
scalar SingleCell_withSecondaryGnb.masterEnb.pppMEHostIf.ppp rcvdPkFromHl:count 0
scalar SingleCell_withSecondaryGnb.masterEnb.pppMEHostIf.ppp rcvdPkFromHl:sum(packetBytes) 0
scalar SingleCell_withSecondaryGnb.masterEnb.pppMEHostIf.ppp passedUpPk:count 0
scalar SingleCell_withSecondaryGnb.masterEnb.pppMEHostIf.ppp passedUpPk:sum(packetBytes) 0
scalar SingleCell_withSecondaryGnb.masterEnb.pppMEHostIf.ppp packetDropIncorrectlyReceived:count 0
scalar SingleCell_withSecondaryGnb.masterEnb.pppMEHostIf.ppp packetDropIncorrectlyReceived:sum(packetBytes) 0
scalar SingleCell_withSecondaryGnb.masterEnb.pppMEHostIf.ppp packetDropInterfaceDown:count 0
scalar SingleCell_withSecondaryGnb.masterEnb.pppMEHostIf.ppp packetDropInterfaceDown:sum(packetBytes) 0
scalar SingleCell_withSecondaryGnb.masterEnb.pppMEHostIf packetDropInterfaceDown:count 0
scalar SingleCell_withSecondaryGnb.masterEnb.pppMEHostIf packetDropInterfaceDown:sum(packetBytes) 0
scalar SingleCell_withSecondaryGnb.masterEnb.pppMEHostIf packetDropNoCarrier:count 0
scalar SingleCell_withSecondaryGnb.masterEnb.pppMEHostIf packetDropNoCarrier:sum(packetBytes) 0
scalar SingleCell_withSecondaryGnb.masterEnb.ipv4.ip packetDropAddressResolutionFailed:count 0
scalar SingleCell_withSecondaryGnb.masterEnb.ipv4.ip packetDropAddressResolutionFailed:sum(packetBytes) 0
scalar SingleCell_withSecondaryGnb.masterEnb.ipv4.ip packetDropHopLimitReached:count 0
scalar SingleCell_withSecondaryGnb.masterEnb.ipv4.ip packetDropHopLimitReached:sum(packetBytes) 0
scalar SingleCell_withSecondaryGnb.masterEnb.ipv4.ip packetDropForwardingDisabled:count 0
scalar SingleCell_withSecondaryGnb.masterEnb.ipv4.ip packetDropForwardingDisabled:sum(packetBytes) 0
scalar SingleCell_withSecondaryGnb.masterEnb.ipv4.ip packetDropNoInterfaceFound:count 0
scalar SingleCell_withSecondaryGnb.masterEnb.ipv4.ip packetDropNoInterfaceFound:sum(packetBytes) 0
scalar SingleCell_withSecondaryGnb.masterEnb.ipv4.ip packetDropNoRouteFound:count 0
scalar SingleCell_withSecondaryGnb.masterEnb.ipv4.ip packetDropNoRouteFound:sum(packetBytes) 0
scalar SingleCell_withSecondaryGnb.masterEnb.ipv4.ip packetDropUndefined:count 0
scalar SingleCell_withSecondaryGnb.masterEnb.ipv4.ip packetDropUndefined:sum(packetBytes) 0
scalar SingleCell_withSecondaryGnb.masterEnb.ipv4.arp arpResolutionFailed:count 0
scalar SingleCell_withSecondaryGnb.masterEnb.ipv4.arp arpResolutionCompleted:count 0
scalar SingleCell_withSecondaryGnb.masterEnb.ipv4.arp arpResolutionInitiated:count 0
scalar SingleCell_withSecondaryGnb.masterEnb.ipv4.arp arpReplySent:count 0
scalar SingleCell_withSecondaryGnb.masterEnb.ipv4.arp arpReplySent:sum(packetBytes) 0
scalar SingleCell_withSecondaryGnb.masterEnb.ipv4.arp arpRequestSent:count 0
scalar SingleCell_withSecondaryGnb.masterEnb.ipv4.arp arpRequestSent:sum(packetBytes) 0
scalar SingleCell_withSecondaryGnb.masterEnb.udp packetReceived:count 655
scalar SingleCell_withSecondaryGnb.masterEnb.udp packetReceived:sum(packetBytes) 58295
scalar SingleCell_withSecondaryGnb.masterEnb.udp packetSent:count 655
scalar SingleCell_withSecondaryGnb.masterEnb.udp packetSent:sum(packetBytes) 55020
scalar SingleCell_withSecondaryGnb.masterEnb.udp passedUpPk:count 655
scalar SingleCell_withSecondaryGnb.masterEnb.udp droppedPkWrongPort:count 0
scalar SingleCell_withSecondaryGnb.masterEnb.udp droppedPkBadChecksum:count 0
scalar SingleCell_withSecondaryGnb.masterEnb.x2App[0].client packetReceived:count 0
scalar SingleCell_withSecondaryGnb.masterEnb.x2App[0].client packetReceived:sum(packetBytes) 0
scalar SingleCell_withSecondaryGnb.masterEnb.x2App[0].client packetSent:count 0
scalar SingleCell_withSecondaryGnb.masterEnb.x2App[0].client packetSent:sum(packetBytes) 0
scalar SingleCell_withSecondaryGnb.masterEnb.x2App[0].client echoedPk:count 0
scalar SingleCell_withSecondaryGnb.masterEnb.x2App[0].client echoedPk:sum(packetBytes) 0
scalar SingleCell_withSecondaryGnb.masterEnb.x2App[0].server "bytes rcvd" 0
scalar SingleCell_withSecondaryGnb.masterEnb.x2App[0].server throughput -nan
scalar SingleCell_withSecondaryGnb.secondaryGnb.cellularNic.pdcp sentPacketToLowerLayer:count 0
scalar SingleCell_withSecondaryGnb.secondaryGnb.cellularNic.pdcp sentPacketToLowerLayer:sum(packetBytes) 0
scalar SingleCell_withSecondaryGnb.secondaryGnb.cellularNic.pdcp sentPacketToUpperLayer:count 0
scalar SingleCell_withSecondaryGnb.secondaryGnb.cellularNic.pdcp sentPacketToUpperLayer:sum(packetBytes) 0
scalar SingleCell_withSecondaryGnb.secondaryGnb.cellularNic.pdcp receivedPacketFromLowerLayer:count 0
scalar SingleCell_withSecondaryGnb.secondaryGnb.cellularNic.pdcp receivedPacketFromLowerLayer:sum(packetBytes) 0
scalar SingleCell_withSecondaryGnb.secondaryGnb.cellularNic.pdcp receivedPacketFromUpperLayer:count 0
scalar SingleCell_withSecondaryGnb.secondaryGnb.cellularNic.pdcp receivedPacketFromUpperLayer:sum(packetBytes) 0
scalar SingleCell_withSecondaryGnb.secondaryGnb.cellularNic.rlc.tm rlcPacketLossUl:mean -nan
scalar SingleCell_withSecondaryGnb.secondaryGnb.cellularNic.rlc.tm rlcPacketLossUl:sum 0
scalar SingleCell_withSecondaryGnb.secondaryGnb.cellularNic.rlc.tm rlcPacketLossDl:mean -nan
scalar SingleCell_withSecondaryGnb.secondaryGnb.cellularNic.rlc.tm rlcPacketLossDl:sum 0
scalar SingleCell_withSecondaryGnb.secondaryGnb.cellularNic.rlc.tm sentPacketToLowerLayer:count 0
scalar SingleCell_withSecondaryGnb.secondaryGnb.cellularNic.rlc.tm sentPacketToLowerLayer:sum(packetBytes) 0
scalar SingleCell_withSecondaryGnb.secondaryGnb.cellularNic.rlc.tm sentPacketToUpperLayer:count 0
scalar SingleCell_withSecondaryGnb.secondaryGnb.cellularNic.rlc.tm sentPacketToUpperLayer:sum(packetBytes) 0
scalar SingleCell_withSecondaryGnb.secondaryGnb.cellularNic.rlc.tm receivedPacketFromLowerLayer:count 0
scalar SingleCell_withSecondaryGnb.secondaryGnb.cellularNic.rlc.tm receivedPacketFromLowerLayer:sum(packetBytes) 0
scalar SingleCell_withSecondaryGnb.secondaryGnb.cellularNic.rlc.tm receivedPacketFromUpperLayer:count 0
scalar SingleCell_withSecondaryGnb.secondaryGnb.cellularNic.rlc.tm receivedPacketFromUpperLayer:sum(packetBytes) 0
scalar SingleCell_withSecondaryGnb.secondaryGnb.cellularNic.rlc.um rlcCellThroughputD2D:mean -nan
scalar SingleCell_withSecondaryGnb.secondaryGnb.cellularNic.rlc.um rlcCellPacketLossD2D:mean -nan
scalar SingleCell_withSecondaryGnb.secondaryGnb.cellularNic.rlc.um rlcPduThroughputD2D:mean -nan
scalar SingleCell_withSecondaryGnb.secondaryGnb.cellularNic.rlc.um rlcPduDelayD2D:mean -nan
scalar SingleCell_withSecondaryGnb.secondaryGnb.cellularNic.rlc.um rlcThroughputD2D:mean -nan
scalar SingleCell_withSecondaryGnb.secondaryGnb.cellularNic.rlc.um rlcDelayD2D:mean -nan
scalar SingleCell_withSecondaryGnb.secondaryGnb.cellularNic.rlc.um rlcPduPacketLossD2D:mean -nan
scalar SingleCell_withSecondaryGnb.secondaryGnb.cellularNic.rlc.um rlcPacketLossD2D:mean -nan
scalar SingleCell_withSecondaryGnb.secondaryGnb.cellularNic.rlc.um rlcPacketLossTotal:mean -nan
scalar SingleCell_withSecondaryGnb.secondaryGnb.cellularNic.rlc.um rlcCellThroughputUl:mean 2321.6799137685398
scalar SingleCell_withSecondaryGnb.secondaryGnb.cellularNic.rlc.um rlcCellThroughputDl:mean -nan
scalar SingleCell_withSecondaryGnb.secondaryGnb.cellularNic.rlc.um rlcPduThroughputUl:mean -nan
scalar SingleCell_withSecondaryGnb.secondaryGnb.cellularNic.rlc.um rlcPduThroughputDl:mean -nan
scalar SingleCell_withSecondaryGnb.secondaryGnb.cellularNic.rlc.um rlcPduDelayUl:mean -nan
scalar SingleCell_withSecondaryGnb.secondaryGnb.cellularNic.rlc.um rlcPduDelayDl:mean -nan
scalar SingleCell_withSecondaryGnb.secondaryGnb.cellularNic.rlc.um rlcThroughputUl:mean -nan
scalar SingleCell_withSecondaryGnb.secondaryGnb.cellularNic.rlc.um rlcThroughputDl:mean -nan
scalar SingleCell_withSecondaryGnb.secondaryGnb.cellularNic.rlc.um rlcDelayUl:mean -nan
scalar SingleCell_withSecondaryGnb.secondaryGnb.cellularNic.rlc.um rlcDelayDl:mean -nan
scalar SingleCell_withSecondaryGnb.secondaryGnb.cellularNic.rlc.um rlcPduPacketLossUl:mean -nan
scalar SingleCell_withSecondaryGnb.secondaryGnb.cellularNic.rlc.um rlcPduPacketLossDl:mean -nan
scalar SingleCell_withSecondaryGnb.secondaryGnb.cellularNic.rlc.um rlcPacketLossUl:mean -nan
scalar SingleCell_withSecondaryGnb.secondaryGnb.cellularNic.rlc.um rlcPacketLossUl:sum 0
scalar SingleCell_withSecondaryGnb.secondaryGnb.cellularNic.rlc.um rlcPacketLossDl:mean -nan
scalar SingleCell_withSecondaryGnb.secondaryGnb.cellularNic.rlc.um rlcPacketLossDl:sum 0
scalar SingleCell_withSecondaryGnb.secondaryGnb.cellularNic.rlc.um rlcCellPacketLossUl:mean 0
scalar SingleCell_withSecondaryGnb.secondaryGnb.cellularNic.rlc.um rlcCellPacketLossDl:mean -nan
scalar SingleCell_withSecondaryGnb.secondaryGnb.cellularNic.rlc.um sentPacketToLowerLayer:count 0
scalar SingleCell_withSecondaryGnb.secondaryGnb.cellularNic.rlc.um sentPacketToLowerLayer:sum(packetBytes) 0
scalar SingleCell_withSecondaryGnb.secondaryGnb.cellularNic.rlc.um sentPacketToUpperLayer:count 655
scalar SingleCell_withSecondaryGnb.secondaryGnb.cellularNic.rlc.um sentPacketToUpperLayer:sum(packetBytes) 45195
scalar SingleCell_withSecondaryGnb.secondaryGnb.cellularNic.rlc.um receivedPacketFromLowerLayer:count 655
scalar SingleCell_withSecondaryGnb.secondaryGnb.cellularNic.rlc.um receivedPacketFromLowerLayer:sum(packetBytes) 46505
scalar SingleCell_withSecondaryGnb.secondaryGnb.cellularNic.rlc.um receivedPacketFromUpperLayer:count 0
scalar SingleCell_withSecondaryGnb.secondaryGnb.cellularNic.rlc.um receivedPacketFromUpperLayer:sum(packetBytes) 0
scalar SingleCell_withSecondaryGnb.secondaryGnb.cellularNic.rlc.am rlcPacketLossTotal:mean -nan
scalar SingleCell_withSecondaryGnb.secondaryGnb.cellularNic.rlc.am rlcCellThroughputUl:mean -nan
scalar SingleCell_withSecondaryGnb.secondaryGnb.cellularNic.rlc.am rlcCellThroughputDl:mean -nan
scalar SingleCell_withSecondaryGnb.secondaryGnb.cellularNic.rlc.am rlcPduThroughputUl:mean -nan
scalar SingleCell_withSecondaryGnb.secondaryGnb.cellularNic.rlc.am rlcPduThroughputDl:mean -nan
scalar SingleCell_withSecondaryGnb.secondaryGnb.cellularNic.rlc.am rlcPduDelayUl:mean -nan
scalar SingleCell_withSecondaryGnb.secondaryGnb.cellularNic.rlc.am rlcPduDelayDl:mean -nan
scalar SingleCell_withSecondaryGnb.secondaryGnb.cellularNic.rlc.am rlcThroughputUl:mean -nan
scalar SingleCell_withSecondaryGnb.secondaryGnb.cellularNic.rlc.am rlcThroughputDl:mean -nan
scalar SingleCell_withSecondaryGnb.secondaryGnb.cellularNic.rlc.am rlcDelayUl:mean -nan
scalar SingleCell_withSecondaryGnb.secondaryGnb.cellularNic.rlc.am rlcDelayDl:mean -nan
scalar SingleCell_withSecondaryGnb.secondaryGnb.cellularNic.rlc.am rlcPduPacketLossUl:mean -nan
scalar SingleCell_withSecondaryGnb.secondaryGnb.cellularNic.rlc.am rlcPduPacketLossDl:mean -nan
scalar SingleCell_withSecondaryGnb.secondaryGnb.cellularNic.rlc.am rlcPacketLossUl:mean -nan
scalar SingleCell_withSecondaryGnb.secondaryGnb.cellularNic.rlc.am rlcPacketLossDl:mean -nan
scalar SingleCell_withSecondaryGnb.secondaryGnb.cellularNic.rlc.am rlcCellPacketLossUl:mean -nan
scalar SingleCell_withSecondaryGnb.secondaryGnb.cellularNic.rlc.am rlcCellPacketLossDl:mean -nan
scalar SingleCell_withSecondaryGnb.secondaryGnb.cellularNic.mac avgServedBlocksUl:mean 0.032750000000000001
scalar SingleCell_withSecondaryGnb.secondaryGnb.cellularNic.mac avgServedBlocksDl:mean 0
scalar SingleCell_withSecondaryGnb.secondaryGnb.cellularNic.mac macCellPacketLossD2D:mean -nan
scalar SingleCell_withSecondaryGnb.secondaryGnb.cellularNic.mac macCellThroughputD2D:mean -nan
scalar SingleCell_withSecondaryGnb.secondaryGnb.cellularNic.mac harqTxAttemptsUl:mean -nan
scalar SingleCell_withSecondaryGnb.secondaryGnb.cellularNic.mac harqTxAttemptsDl:mean -nan
scalar SingleCell_withSecondaryGnb.secondaryGnb.cellularNic.mac harqErrorRate_4th_Ul:mean -nan
scalar SingleCell_withSecondaryGnb.secondaryGnb.cellularNic.mac harqErrorRate_4th_Dl:mean -nan
scalar SingleCell_withSecondaryGnb.secondaryGnb.cellularNic.mac harqErrorRate_3rd_Ul:mean -nan
scalar SingleCell_withSecondaryGnb.secondaryGnb.cellularNic.mac harqErrorRate_3rd_Dl:mean -nan
scalar SingleCell_withSecondaryGnb.secondaryGnb.cellularNic.mac harqErrorRate_2nd_Ul:mean -nan
scalar SingleCell_withSecondaryGnb.secondaryGnb.cellularNic.mac harqErrorRate_2nd_Dl:mean -nan
scalar SingleCell_withSecondaryGnb.secondaryGnb.cellularNic.mac harqErrorRate_1st_Ul:mean -nan
scalar SingleCell_withSecondaryGnb.secondaryGnb.cellularNic.mac harqErrorRate_1st_Dl:mean -nan
scalar SingleCell_withSecondaryGnb.secondaryGnb.cellularNic.mac harqErrorRateUl:mean -nan
scalar SingleCell_withSecondaryGnb.secondaryGnb.cellularNic.mac harqErrorRateDl:mean -nan
scalar SingleCell_withSecondaryGnb.secondaryGnb.cellularNic.mac macCellPacketLossUl:mean 0
scalar SingleCell_withSecondaryGnb.secondaryGnb.cellularNic.mac macCellPacketLossDl:mean -nan
scalar SingleCell_withSecondaryGnb.secondaryGnb.cellularNic.mac macPacketLossUl:mean -nan
scalar SingleCell_withSecondaryGnb.secondaryGnb.cellularNic.mac macPacketLossDl:mean -nan
scalar SingleCell_withSecondaryGnb.secondaryGnb.cellularNic.mac macThroughputUl:mean -nan
scalar SingleCell_withSecondaryGnb.secondaryGnb.cellularNic.mac macThroughputDl:mean -nan
scalar SingleCell_withSecondaryGnb.secondaryGnb.cellularNic.mac macDelayUl:mean -nan
scalar SingleCell_withSecondaryGnb.secondaryGnb.cellularNic.mac macDelayDl:mean -nan
scalar SingleCell_withSecondaryGnb.secondaryGnb.cellularNic.mac macCellThroughputUl:mean 2456.2700536971515
scalar SingleCell_withSecondaryGnb.secondaryGnb.cellularNic.mac macCellThroughputDl:mean -nan
scalar SingleCell_withSecondaryGnb.secondaryGnb.cellularNic.mac sentPacketToLowerLayer:count 1965
scalar SingleCell_withSecondaryGnb.secondaryGnb.cellularNic.mac sentPacketToLowerLayer:sum(packetBytes) 1965
scalar SingleCell_withSecondaryGnb.secondaryGnb.cellularNic.mac sentPacketToUpperLayer:count 655
scalar SingleCell_withSecondaryGnb.secondaryGnb.cellularNic.mac sentPacketToUpperLayer:sum(packetBytes) 46505
scalar SingleCell_withSecondaryGnb.secondaryGnb.cellularNic.mac receivedPacketFromLowerLayer:count 4644
scalar SingleCell_withSecondaryGnb.secondaryGnb.cellularNic.mac receivedPacketFromLowerLayer:sum(packetBytes) 51804
scalar SingleCell_withSecondaryGnb.secondaryGnb.cellularNic.mac receivedPacketFromUpperLayer:count 0
scalar SingleCell_withSecondaryGnb.secondaryGnb.cellularNic.mac receivedPacketFromUpperLayer:sum(packetBytes) 0
scalar SingleCell_withSecondaryGnb.secondaryGnb.cellularNic.mac macBufferOverFlowD2D:mean -nan
scalar SingleCell_withSecondaryGnb.secondaryGnb.cellularNic.mac macBufferOverFlowUl:mean -nan
scalar SingleCell_withSecondaryGnb.secondaryGnb.cellularNic.mac macBufferOverFlowDl:mean -nan
scalar SingleCell_withSecondaryGnb.secondaryGnb.cellularNic.channelModel[0] measuredSinrUl:mean -nan
scalar SingleCell_withSecondaryGnb.secondaryGnb.cellularNic.channelModel[0] measuredSinrDl:mean -nan
scalar SingleCell_withSecondaryGnb.secondaryGnb.cellularNic.channelModel[0] rcvdSinrD2D:mean -nan
scalar SingleCell_withSecondaryGnb.secondaryGnb.cellularNic.channelModel[0] rcvdSinrUl:mean -nan
scalar SingleCell_withSecondaryGnb.secondaryGnb.cellularNic.channelModel[0] rcvdSinrDl:mean -nan
scalar SingleCell_withSecondaryGnb.secondaryGnb.cellularNic packetDropInterfaceDown:count 0
scalar SingleCell_withSecondaryGnb.secondaryGnb.cellularNic packetDropInterfaceDown:sum(packetBytes) 0
scalar SingleCell_withSecondaryGnb.secondaryGnb.cellularNic packetDropNoCarrier:count 0
scalar SingleCell_withSecondaryGnb.secondaryGnb.cellularNic packetDropNoCarrier:sum(packetBytes) 0
scalar SingleCell_withSecondaryGnb.secondaryGnb.pppIf.queue queueLength:last 0
scalar SingleCell_withSecondaryGnb.secondaryGnb.pppIf.queue queueLength:max 0
scalar SingleCell_withSecondaryGnb.secondaryGnb.pppIf.queue queueLength:timeavg 0
scalar SingleCell_withSecondaryGnb.secondaryGnb.pppIf.queue queueBitLength:last 0
scalar SingleCell_withSecondaryGnb.secondaryGnb.pppIf.queue queueBitLength:max 0
scalar SingleCell_withSecondaryGnb.secondaryGnb.pppIf.queue queueBitLength:timeavg 0
scalar SingleCell_withSecondaryGnb.secondaryGnb.pppIf.queue outgoingPackets:count 0
scalar SingleCell_withSecondaryGnb.secondaryGnb.pppIf.queue outgoingPacketLengths:sum 0
scalar SingleCell_withSecondaryGnb.secondaryGnb.pppIf.queue incomingPackets:count 0
scalar SingleCell_withSecondaryGnb.secondaryGnb.pppIf.queue incomingPacketLengths:sum 0
scalar SingleCell_withSecondaryGnb.secondaryGnb.pppIf.queue droppedPacketsQueueOverflow:count 0
scalar SingleCell_withSecondaryGnb.secondaryGnb.pppIf.queue droppedPacketLengthsQueueOverflow:sum 0
scalar SingleCell_withSecondaryGnb.secondaryGnb.pppIf.ppp transmissionState:timeavg 0
scalar SingleCell_withSecondaryGnb.secondaryGnb.pppIf.ppp rxPkOk:count 0
scalar SingleCell_withSecondaryGnb.secondaryGnb.pppIf.ppp rxPkOk:sum(packetBytes) 0
scalar SingleCell_withSecondaryGnb.secondaryGnb.pppIf.ppp txPk:count 0
scalar SingleCell_withSecondaryGnb.secondaryGnb.pppIf.ppp txPk:sum(packetBytes) 0
scalar SingleCell_withSecondaryGnb.secondaryGnb.pppIf.ppp rcvdPkFromHl:count 0
scalar SingleCell_withSecondaryGnb.secondaryGnb.pppIf.ppp rcvdPkFromHl:sum(packetBytes) 0
scalar SingleCell_withSecondaryGnb.secondaryGnb.pppIf.ppp passedUpPk:count 0
scalar SingleCell_withSecondaryGnb.secondaryGnb.pppIf.ppp passedUpPk:sum(packetBytes) 0
scalar SingleCell_withSecondaryGnb.secondaryGnb.pppIf.ppp packetDropIncorrectlyReceived:count 0
scalar SingleCell_withSecondaryGnb.secondaryGnb.pppIf.ppp packetDropIncorrectlyReceived:sum(packetBytes) 0
scalar SingleCell_withSecondaryGnb.secondaryGnb.pppIf.ppp packetDropInterfaceDown:count 0
scalar SingleCell_withSecondaryGnb.secondaryGnb.pppIf.ppp packetDropInterfaceDown:sum(packetBytes) 0
scalar SingleCell_withSecondaryGnb.secondaryGnb.pppIf packetDropInterfaceDown:count 0
scalar SingleCell_withSecondaryGnb.secondaryGnb.pppIf packetDropInterfaceDown:sum(packetBytes) 0
scalar SingleCell_withSecondaryGnb.secondaryGnb.pppIf packetDropNoCarrier:count 0
scalar SingleCell_withSecondaryGnb.secondaryGnb.pppIf packetDropNoCarrier:sum(packetBytes) 0
scalar SingleCell_withSecondaryGnb.secondaryGnb.x2ppp[0].queue queueLength:last 0
scalar SingleCell_withSecondaryGnb.secondaryGnb.x2ppp[0].queue queueLength:max 0
scalar SingleCell_withSecondaryGnb.secondaryGnb.x2ppp[0].queue queueLength:timeavg 0
scalar SingleCell_withSecondaryGnb.secondaryGnb.x2ppp[0].queue queueBitLength:last 0
scalar SingleCell_withSecondaryGnb.secondaryGnb.x2ppp[0].queue queueBitLength:max 0
scalar SingleCell_withSecondaryGnb.secondaryGnb.x2ppp[0].queue queueBitLength:timeavg 0
scalar SingleCell_withSecondaryGnb.secondaryGnb.x2ppp[0].queue outgoingPackets:count 659
scalar SingleCell_withSecondaryGnb.secondaryGnb.x2ppp[0].queue outgoingPacketLengths:sum 574488
scalar SingleCell_withSecondaryGnb.secondaryGnb.x2ppp[0].queue incomingPackets:count 659
scalar SingleCell_withSecondaryGnb.secondaryGnb.x2ppp[0].queue incomingPacketLengths:sum 574488
scalar SingleCell_withSecondaryGnb.secondaryGnb.x2ppp[0].queue droppedPacketsQueueOverflow:count 0
scalar SingleCell_withSecondaryGnb.secondaryGnb.x2ppp[0].queue droppedPacketLengthsQueueOverflow:sum 0
scalar SingleCell_withSecondaryGnb.secondaryGnb.x2ppp[0].ppp transmissionState:timeavg 3.0569600000000062e-06
scalar SingleCell_withSecondaryGnb.secondaryGnb.x2ppp[0].ppp rxPkOk:count 4
scalar SingleCell_withSecondaryGnb.secondaryGnb.x2ppp[0].ppp rxPkOk:sum(packetBytes) 444
scalar SingleCell_withSecondaryGnb.secondaryGnb.x2ppp[0].ppp txPk:count 659
scalar SingleCell_withSecondaryGnb.secondaryGnb.x2ppp[0].ppp txPk:sum(packetBytes) 76424
scalar SingleCell_withSecondaryGnb.secondaryGnb.x2ppp[0].ppp rcvdPkFromHl:count 659
scalar SingleCell_withSecondaryGnb.secondaryGnb.x2ppp[0].ppp rcvdPkFromHl:sum(packetBytes) 71811
scalar SingleCell_withSecondaryGnb.secondaryGnb.x2ppp[0].ppp passedUpPk:count 4
scalar SingleCell_withSecondaryGnb.secondaryGnb.x2ppp[0].ppp passedUpPk:sum(packetBytes) 416
scalar SingleCell_withSecondaryGnb.secondaryGnb.x2ppp[0].ppp packetDropIncorrectlyReceived:count 0
scalar SingleCell_withSecondaryGnb.secondaryGnb.x2ppp[0].ppp packetDropIncorrectlyReceived:sum(packetBytes) 0
scalar SingleCell_withSecondaryGnb.secondaryGnb.x2ppp[0].ppp packetDropInterfaceDown:count 0
scalar SingleCell_withSecondaryGnb.secondaryGnb.x2ppp[0].ppp packetDropInterfaceDown:sum(packetBytes) 0
scalar SingleCell_withSecondaryGnb.secondaryGnb.x2ppp[0] packetDropInterfaceDown:count 0
scalar SingleCell_withSecondaryGnb.secondaryGnb.x2ppp[0] packetDropInterfaceDown:sum(packetBytes) 0
scalar SingleCell_withSecondaryGnb.secondaryGnb.x2ppp[0] packetDropNoCarrier:count 0
scalar SingleCell_withSecondaryGnb.secondaryGnb.x2ppp[0] packetDropNoCarrier:sum(packetBytes) 0
scalar SingleCell_withSecondaryGnb.secondaryGnb.pppMEHostIf.queue queueLength:last 0
scalar SingleCell_withSecondaryGnb.secondaryGnb.pppMEHostIf.queue queueLength:max 0
scalar SingleCell_withSecondaryGnb.secondaryGnb.pppMEHostIf.queue queueLength:timeavg 0
scalar SingleCell_withSecondaryGnb.secondaryGnb.pppMEHostIf.queue queueBitLength:last 0
scalar SingleCell_withSecondaryGnb.secondaryGnb.pppMEHostIf.queue queueBitLength:max 0
scalar SingleCell_withSecondaryGnb.secondaryGnb.pppMEHostIf.queue queueBitLength:timeavg 0
scalar SingleCell_withSecondaryGnb.secondaryGnb.pppMEHostIf.queue outgoingPackets:count 0
scalar SingleCell_withSecondaryGnb.secondaryGnb.pppMEHostIf.queue outgoingPacketLengths:sum 0
scalar SingleCell_withSecondaryGnb.secondaryGnb.pppMEHostIf.queue incomingPackets:count 0
scalar SingleCell_withSecondaryGnb.secondaryGnb.pppMEHostIf.queue incomingPacketLengths:sum 0
scalar SingleCell_withSecondaryGnb.secondaryGnb.pppMEHostIf.queue droppedPacketsQueueOverflow:count 0
scalar SingleCell_withSecondaryGnb.secondaryGnb.pppMEHostIf.queue droppedPacketLengthsQueueOverflow:sum 0
scalar SingleCell_withSecondaryGnb.secondaryGnb.pppMEHostIf.ppp transmissionState:timeavg 0
scalar SingleCell_withSecondaryGnb.secondaryGnb.pppMEHostIf.ppp rxPkOk:count 0
scalar SingleCell_withSecondaryGnb.secondaryGnb.pppMEHostIf.ppp rxPkOk:sum(packetBytes) 0
scalar SingleCell_withSecondaryGnb.secondaryGnb.pppMEHostIf.ppp txPk:count 0
scalar SingleCell_withSecondaryGnb.secondaryGnb.pppMEHostIf.ppp txPk:sum(packetBytes) 0
scalar SingleCell_withSecondaryGnb.secondaryGnb.pppMEHostIf.ppp rcvdPkFromHl:count 0
scalar SingleCell_withSecondaryGnb.secondaryGnb.pppMEHostIf.ppp rcvdPkFromHl:sum(packetBytes) 0
scalar SingleCell_withSecondaryGnb.secondaryGnb.pppMEHostIf.ppp passedUpPk:count 0
scalar SingleCell_withSecondaryGnb.secondaryGnb.pppMEHostIf.ppp passedUpPk:sum(packetBytes) 0
scalar SingleCell_withSecondaryGnb.secondaryGnb.pppMEHostIf.ppp packetDropIncorrectlyReceived:count 0
scalar SingleCell_withSecondaryGnb.secondaryGnb.pppMEHostIf.ppp packetDropIncorrectlyReceived:sum(packetBytes) 0
scalar SingleCell_withSecondaryGnb.secondaryGnb.pppMEHostIf.ppp packetDropInterfaceDown:count 0
scalar SingleCell_withSecondaryGnb.secondaryGnb.pppMEHostIf.ppp packetDropInterfaceDown:sum(packetBytes) 0
scalar SingleCell_withSecondaryGnb.secondaryGnb.pppMEHostIf packetDropInterfaceDown:count 0
scalar SingleCell_withSecondaryGnb.secondaryGnb.pppMEHostIf packetDropInterfaceDown:sum(packetBytes) 0
scalar SingleCell_withSecondaryGnb.secondaryGnb.pppMEHostIf packetDropNoCarrier:count 0
scalar SingleCell_withSecondaryGnb.secondaryGnb.pppMEHostIf packetDropNoCarrier:sum(packetBytes) 0
scalar SingleCell_withSecondaryGnb.secondaryGnb.ipv4.ip packetDropAddressResolutionFailed:count 0
scalar SingleCell_withSecondaryGnb.secondaryGnb.ipv4.ip packetDropAddressResolutionFailed:sum(packetBytes) 0
scalar SingleCell_withSecondaryGnb.secondaryGnb.ipv4.ip packetDropHopLimitReached:count 0
scalar SingleCell_withSecondaryGnb.secondaryGnb.ipv4.ip packetDropHopLimitReached:sum(packetBytes) 0
scalar SingleCell_withSecondaryGnb.secondaryGnb.ipv4.ip packetDropForwardingDisabled:count 0
scalar SingleCell_withSecondaryGnb.secondaryGnb.ipv4.ip packetDropForwardingDisabled:sum(packetBytes) 0
scalar SingleCell_withSecondaryGnb.secondaryGnb.ipv4.ip packetDropNoInterfaceFound:count 0
scalar SingleCell_withSecondaryGnb.secondaryGnb.ipv4.ip packetDropNoInterfaceFound:sum(packetBytes) 0
scalar SingleCell_withSecondaryGnb.secondaryGnb.ipv4.ip packetDropNoRouteFound:count 0
scalar SingleCell_withSecondaryGnb.secondaryGnb.ipv4.ip packetDropNoRouteFound:sum(packetBytes) 0
scalar SingleCell_withSecondaryGnb.secondaryGnb.ipv4.ip packetDropUndefined:count 0
scalar SingleCell_withSecondaryGnb.secondaryGnb.ipv4.ip packetDropUndefined:sum(packetBytes) 0
scalar SingleCell_withSecondaryGnb.secondaryGnb.ipv4.arp arpResolutionFailed:count 0
scalar SingleCell_withSecondaryGnb.secondaryGnb.ipv4.arp arpResolutionCompleted:count 0
scalar SingleCell_withSecondaryGnb.secondaryGnb.ipv4.arp arpResolutionInitiated:count 0
scalar SingleCell_withSecondaryGnb.secondaryGnb.ipv4.arp arpReplySent:count 0
scalar SingleCell_withSecondaryGnb.secondaryGnb.ipv4.arp arpReplySent:sum(packetBytes) 0
scalar SingleCell_withSecondaryGnb.secondaryGnb.ipv4.arp arpRequestSent:count 0
scalar SingleCell_withSecondaryGnb.secondaryGnb.ipv4.arp arpRequestSent:sum(packetBytes) 0
scalar SingleCell_withSecondaryGnb.secondaryGnb.udp packetReceived:count 0
scalar SingleCell_withSecondaryGnb.secondaryGnb.udp packetReceived:sum(packetBytes) 0
scalar SingleCell_withSecondaryGnb.secondaryGnb.udp packetSent:count 655
scalar SingleCell_withSecondaryGnb.secondaryGnb.udp packetSent:sum(packetBytes) 58295
scalar SingleCell_withSecondaryGnb.secondaryGnb.udp passedUpPk:count 0
scalar SingleCell_withSecondaryGnb.secondaryGnb.udp droppedPkWrongPort:count 0
scalar SingleCell_withSecondaryGnb.secondaryGnb.udp droppedPkBadChecksum:count 0
scalar SingleCell_withSecondaryGnb.secondaryGnb.x2App[0].client packetReceived:count 0
scalar SingleCell_withSecondaryGnb.secondaryGnb.x2App[0].client packetReceived:sum(packetBytes) 0
scalar SingleCell_withSecondaryGnb.secondaryGnb.x2App[0].client packetSent:count 0
scalar SingleCell_withSecondaryGnb.secondaryGnb.x2App[0].client packetSent:sum(packetBytes) 0
scalar SingleCell_withSecondaryGnb.secondaryGnb.x2App[0].client echoedPk:count 0
scalar SingleCell_withSecondaryGnb.secondaryGnb.x2App[0].client echoedPk:sum(packetBytes) 0
scalar SingleCell_withSecondaryGnb.secondaryGnb.x2App[0].server "bytes rcvd" 0
scalar SingleCell_withSecondaryGnb.secondaryGnb.x2App[0].server throughput -nan
scalar SingleCell_withSecondaryGnb.ue[0].lo[0].lo rcvdPkFromHl:count 0
scalar SingleCell_withSecondaryGnb.ue[0].lo[0].lo rcvdPkFromHl:sum(packetBytes) 0
scalar SingleCell_withSecondaryGnb.ue[0].lo[0].lo passedUpPk:count 0
scalar SingleCell_withSecondaryGnb.ue[0].lo[0].lo passedUpPk:sum(packetBytes) 0
scalar SingleCell_withSecondaryGnb.ue[0].lo[0] packetDropInterfaceDown:count 0
scalar SingleCell_withSecondaryGnb.ue[0].lo[0] packetDropInterfaceDown:sum(packetBytes) 0
scalar SingleCell_withSecondaryGnb.ue[0].lo[0] packetDropNoCarrier:count 0
scalar SingleCell_withSecondaryGnb.ue[0].lo[0] packetDropNoCarrier:sum(packetBytes) 0
scalar SingleCell_withSecondaryGnb.ue[0].cellularNic.pdcp sentPacketToLowerLayer:count 655
scalar SingleCell_withSecondaryGnb.ue[0].cellularNic.pdcp sentPacketToLowerLayer:sum(packetBytes) 45195
scalar SingleCell_withSecondaryGnb.ue[0].cellularNic.pdcp sentPacketToUpperLayer:count 0
scalar SingleCell_withSecondaryGnb.ue[0].cellularNic.pdcp sentPacketToUpperLayer:sum(packetBytes) 0
scalar SingleCell_withSecondaryGnb.ue[0].cellularNic.pdcp receivedPacketFromLowerLayer:count 0
scalar SingleCell_withSecondaryGnb.ue[0].cellularNic.pdcp receivedPacketFromLowerLayer:sum(packetBytes) 0
scalar SingleCell_withSecondaryGnb.ue[0].cellularNic.pdcp receivedPacketFromUpperLayer:count 655
scalar SingleCell_withSecondaryGnb.ue[0].cellularNic.pdcp receivedPacketFromUpperLayer:sum(packetBytes) 44540
scalar SingleCell_withSecondaryGnb.ue[0].cellularNic.rlc.tm rlcPacketLossUl:mean -nan
scalar SingleCell_withSecondaryGnb.ue[0].cellularNic.rlc.tm rlcPacketLossUl:sum 0
scalar SingleCell_withSecondaryGnb.ue[0].cellularNic.rlc.tm rlcPacketLossDl:mean -nan
scalar SingleCell_withSecondaryGnb.ue[0].cellularNic.rlc.tm rlcPacketLossDl:sum 0
scalar SingleCell_withSecondaryGnb.ue[0].cellularNic.rlc.tm sentPacketToLowerLayer:count 0
scalar SingleCell_withSecondaryGnb.ue[0].cellularNic.rlc.tm sentPacketToLowerLayer:sum(packetBytes) 0
scalar SingleCell_withSecondaryGnb.ue[0].cellularNic.rlc.tm sentPacketToUpperLayer:count 0
scalar SingleCell_withSecondaryGnb.ue[0].cellularNic.rlc.tm sentPacketToUpperLayer:sum(packetBytes) 0
scalar SingleCell_withSecondaryGnb.ue[0].cellularNic.rlc.tm receivedPacketFromLowerLayer:count 0
scalar SingleCell_withSecondaryGnb.ue[0].cellularNic.rlc.tm receivedPacketFromLowerLayer:sum(packetBytes) 0
scalar SingleCell_withSecondaryGnb.ue[0].cellularNic.rlc.tm receivedPacketFromUpperLayer:count 0
scalar SingleCell_withSecondaryGnb.ue[0].cellularNic.rlc.tm receivedPacketFromUpperLayer:sum(packetBytes) 0
scalar SingleCell_withSecondaryGnb.ue[0].cellularNic.rlc.um rlcCellThroughputD2D:mean -nan
scalar SingleCell_withSecondaryGnb.ue[0].cellularNic.rlc.um rlcCellPacketLossD2D:mean -nan
scalar SingleCell_withSecondaryGnb.ue[0].cellularNic.rlc.um rlcPduThroughputD2D:mean -nan
scalar SingleCell_withSecondaryGnb.ue[0].cellularNic.rlc.um rlcPduDelayD2D:mean -nan
scalar SingleCell_withSecondaryGnb.ue[0].cellularNic.rlc.um rlcThroughputD2D:mean -nan
scalar SingleCell_withSecondaryGnb.ue[0].cellularNic.rlc.um rlcDelayD2D:mean -nan
scalar SingleCell_withSecondaryGnb.ue[0].cellularNic.rlc.um rlcPduPacketLossD2D:mean -nan
scalar SingleCell_withSecondaryGnb.ue[0].cellularNic.rlc.um rlcPacketLossD2D:mean -nan
scalar SingleCell_withSecondaryGnb.ue[0].cellularNic.rlc.um rlcPacketLossTotal:mean -nan
scalar SingleCell_withSecondaryGnb.ue[0].cellularNic.rlc.um rlcCellThroughputUl:mean -nan
scalar SingleCell_withSecondaryGnb.ue[0].cellularNic.rlc.um rlcCellThroughputDl:mean -nan
scalar SingleCell_withSecondaryGnb.ue[0].cellularNic.rlc.um rlcPduThroughputUl:mean -nan
scalar SingleCell_withSecondaryGnb.ue[0].cellularNic.rlc.um rlcPduThroughputDl:mean -nan
scalar SingleCell_withSecondaryGnb.ue[0].cellularNic.rlc.um rlcPduDelayUl:mean -nan
scalar SingleCell_withSecondaryGnb.ue[0].cellularNic.rlc.um rlcPduDelayDl:mean -nan
scalar SingleCell_withSecondaryGnb.ue[0].cellularNic.rlc.um rlcThroughputUl:mean -nan
scalar SingleCell_withSecondaryGnb.ue[0].cellularNic.rlc.um rlcThroughputDl:mean -nan
scalar SingleCell_withSecondaryGnb.ue[0].cellularNic.rlc.um rlcDelayUl:mean -nan
scalar SingleCell_withSecondaryGnb.ue[0].cellularNic.rlc.um rlcDelayDl:mean -nan
scalar SingleCell_withSecondaryGnb.ue[0].cellularNic.rlc.um rlcPduPacketLossUl:mean -nan
scalar SingleCell_withSecondaryGnb.ue[0].cellularNic.rlc.um rlcPduPacketLossDl:mean -nan
scalar SingleCell_withSecondaryGnb.ue[0].cellularNic.rlc.um rlcPacketLossUl:mean -nan
scalar SingleCell_withSecondaryGnb.ue[0].cellularNic.rlc.um rlcPacketLossUl:sum 0
scalar SingleCell_withSecondaryGnb.ue[0].cellularNic.rlc.um rlcPacketLossDl:mean -nan
scalar SingleCell_withSecondaryGnb.ue[0].cellularNic.rlc.um rlcPacketLossDl:sum 0
scalar SingleCell_withSecondaryGnb.ue[0].cellularNic.rlc.um rlcCellPacketLossUl:mean -nan
scalar SingleCell_withSecondaryGnb.ue[0].cellularNic.rlc.um rlcCellPacketLossDl:mean -nan
scalar SingleCell_withSecondaryGnb.ue[0].cellularNic.rlc.um sentPacketToLowerLayer:count 0
scalar SingleCell_withSecondaryGnb.ue[0].cellularNic.rlc.um sentPacketToLowerLayer:sum(packetBytes) 0
scalar SingleCell_withSecondaryGnb.ue[0].cellularNic.rlc.um sentPacketToUpperLayer:count 0
scalar SingleCell_withSecondaryGnb.ue[0].cellularNic.rlc.um sentPacketToUpperLayer:sum(packetBytes) 0
scalar SingleCell_withSecondaryGnb.ue[0].cellularNic.rlc.um receivedPacketFromLowerLayer:count 0
scalar SingleCell_withSecondaryGnb.ue[0].cellularNic.rlc.um receivedPacketFromLowerLayer:sum(packetBytes) 0
scalar SingleCell_withSecondaryGnb.ue[0].cellularNic.rlc.um receivedPacketFromUpperLayer:count 0
scalar SingleCell_withSecondaryGnb.ue[0].cellularNic.rlc.um receivedPacketFromUpperLayer:sum(packetBytes) 0
scalar SingleCell_withSecondaryGnb.ue[0].cellularNic.rlc.am rlcPacketLossTotal:mean -nan
scalar SingleCell_withSecondaryGnb.ue[0].cellularNic.rlc.am rlcCellThroughputUl:mean -nan
scalar SingleCell_withSecondaryGnb.ue[0].cellularNic.rlc.am rlcCellThroughputDl:mean -nan
scalar SingleCell_withSecondaryGnb.ue[0].cellularNic.rlc.am rlcPduThroughputUl:mean -nan
scalar SingleCell_withSecondaryGnb.ue[0].cellularNic.rlc.am rlcPduThroughputDl:mean -nan
scalar SingleCell_withSecondaryGnb.ue[0].cellularNic.rlc.am rlcPduDelayUl:mean -nan
scalar SingleCell_withSecondaryGnb.ue[0].cellularNic.rlc.am rlcPduDelayDl:mean -nan
scalar SingleCell_withSecondaryGnb.ue[0].cellularNic.rlc.am rlcThroughputUl:mean -nan
scalar SingleCell_withSecondaryGnb.ue[0].cellularNic.rlc.am rlcThroughputDl:mean -nan
scalar SingleCell_withSecondaryGnb.ue[0].cellularNic.rlc.am rlcDelayUl:mean -nan
scalar SingleCell_withSecondaryGnb.ue[0].cellularNic.rlc.am rlcDelayDl:mean -nan
scalar SingleCell_withSecondaryGnb.ue[0].cellularNic.rlc.am rlcPduPacketLossUl:mean -nan
scalar SingleCell_withSecondaryGnb.ue[0].cellularNic.rlc.am rlcPduPacketLossDl:mean -nan
scalar SingleCell_withSecondaryGnb.ue[0].cellularNic.rlc.am rlcPacketLossUl:mean -nan
scalar SingleCell_withSecondaryGnb.ue[0].cellularNic.rlc.am rlcPacketLossDl:mean -nan
scalar SingleCell_withSecondaryGnb.ue[0].cellularNic.rlc.am rlcCellPacketLossUl:mean -nan
scalar SingleCell_withSecondaryGnb.ue[0].cellularNic.rlc.am rlcCellPacketLossDl:mean -nan
scalar SingleCell_withSecondaryGnb.ue[0].cellularNic.mac harqErrorRate_4th_D2D:mean -nan
scalar SingleCell_withSecondaryGnb.ue[0].cellularNic.mac harqErrorRate_3rd_D2D:mean -nan
scalar SingleCell_withSecondaryGnb.ue[0].cellularNic.mac harqErrorRate_2nd_D2D:mean -nan
scalar SingleCell_withSecondaryGnb.ue[0].cellularNic.mac harqErrorRate_1st_D2D:mean -nan
scalar SingleCell_withSecondaryGnb.ue[0].cellularNic.mac harqErrorRateD2D:mean -nan
scalar SingleCell_withSecondaryGnb.ue[0].cellularNic.mac macPacketLossD2D:mean -nan
scalar SingleCell_withSecondaryGnb.ue[0].cellularNic.mac macDelayD2D:mean -nan
scalar SingleCell_withSecondaryGnb.ue[0].cellularNic.mac macThroughputD2D:mean -nan
scalar SingleCell_withSecondaryGnb.ue[0].cellularNic.mac harqTxAttemptsUl:mean -nan
scalar SingleCell_withSecondaryGnb.ue[0].cellularNic.mac harqTxAttemptsDl:mean -nan
scalar SingleCell_withSecondaryGnb.ue[0].cellularNic.mac harqErrorRate_4th_Ul:mean -nan
scalar SingleCell_withSecondaryGnb.ue[0].cellularNic.mac harqErrorRate_4th_Dl:mean -nan
scalar SingleCell_withSecondaryGnb.ue[0].cellularNic.mac harqErrorRate_3rd_Ul:mean -nan
scalar SingleCell_withSecondaryGnb.ue[0].cellularNic.mac harqErrorRate_3rd_Dl:mean -nan
scalar SingleCell_withSecondaryGnb.ue[0].cellularNic.mac harqErrorRate_2nd_Ul:mean -nan
scalar SingleCell_withSecondaryGnb.ue[0].cellularNic.mac harqErrorRate_2nd_Dl:mean -nan
scalar SingleCell_withSecondaryGnb.ue[0].cellularNic.mac harqErrorRate_1st_Ul:mean -nan
scalar SingleCell_withSecondaryGnb.ue[0].cellularNic.mac harqErrorRate_1st_Dl:mean -nan
scalar SingleCell_withSecondaryGnb.ue[0].cellularNic.mac harqErrorRateUl:mean -nan
scalar SingleCell_withSecondaryGnb.ue[0].cellularNic.mac harqErrorRateDl:mean -nan
scalar SingleCell_withSecondaryGnb.ue[0].cellularNic.mac macCellPacketLossUl:mean -nan
scalar SingleCell_withSecondaryGnb.ue[0].cellularNic.mac macCellPacketLossDl:mean -nan
scalar SingleCell_withSecondaryGnb.ue[0].cellularNic.mac macPacketLossUl:mean -nan
scalar SingleCell_withSecondaryGnb.ue[0].cellularNic.mac macPacketLossDl:mean -nan
scalar SingleCell_withSecondaryGnb.ue[0].cellularNic.mac macThroughputUl:mean -nan
scalar SingleCell_withSecondaryGnb.ue[0].cellularNic.mac macThroughputDl:mean -nan
scalar SingleCell_withSecondaryGnb.ue[0].cellularNic.mac macDelayUl:mean -nan
scalar SingleCell_withSecondaryGnb.ue[0].cellularNic.mac macDelayDl:mean -nan
scalar SingleCell_withSecondaryGnb.ue[0].cellularNic.mac macCellThroughputUl:mean -nan
scalar SingleCell_withSecondaryGnb.ue[0].cellularNic.mac macCellThroughputDl:mean -nan
scalar SingleCell_withSecondaryGnb.ue[0].cellularNic.mac rcvdD2DModeSwitchNotification:count 0
scalar SingleCell_withSecondaryGnb.ue[0].cellularNic.mac sentPacketToLowerLayer:count 0
scalar SingleCell_withSecondaryGnb.ue[0].cellularNic.mac sentPacketToLowerLayer:sum(packetBytes) 0
scalar SingleCell_withSecondaryGnb.ue[0].cellularNic.mac sentPacketToUpperLayer:count 0
scalar SingleCell_withSecondaryGnb.ue[0].cellularNic.mac sentPacketToUpperLayer:sum(packetBytes) 0
scalar SingleCell_withSecondaryGnb.ue[0].cellularNic.mac receivedPacketFromLowerLayer:count 0
scalar SingleCell_withSecondaryGnb.ue[0].cellularNic.mac receivedPacketFromLowerLayer:sum(packetBytes) 0
scalar SingleCell_withSecondaryGnb.ue[0].cellularNic.mac receivedPacketFromUpperLayer:count 0
scalar SingleCell_withSecondaryGnb.ue[0].cellularNic.mac receivedPacketFromUpperLayer:sum(packetBytes) 0
scalar SingleCell_withSecondaryGnb.ue[0].cellularNic.mac macBufferOverFlowD2D:mean -nan
scalar SingleCell_withSecondaryGnb.ue[0].cellularNic.mac macBufferOverFlowUl:mean -nan
scalar SingleCell_withSecondaryGnb.ue[0].cellularNic.mac macBufferOverFlowDl:mean -nan
scalar SingleCell_withSecondaryGnb.ue[0].cellularNic.phy distance:mean -nan
scalar SingleCell_withSecondaryGnb.ue[0].cellularNic.phy averageCqiD2D:mean -nan
scalar SingleCell_withSecondaryGnb.ue[0].cellularNic.phy averageCqiUl:mean -nan
scalar SingleCell_withSecondaryGnb.ue[0].cellularNic.phy averageCqiUl:count 0
scalar SingleCell_withSecondaryGnb.ue[0].cellularNic.phy averageCqiDl:mean -nan
scalar SingleCell_withSecondaryGnb.ue[0].cellularNic.phy averageCqiDl:count 0
scalar SingleCell_withSecondaryGnb.ue[0].cellularNic.channelModel[0] measuredSinrUl:mean 33.467595560611208
scalar SingleCell_withSecondaryGnb.ue[0].cellularNic.channelModel[0] measuredSinrDl:mean 44.000450321473345
scalar SingleCell_withSecondaryGnb.ue[0].cellularNic.channelModel[0] rcvdSinrD2D:mean -nan
scalar SingleCell_withSecondaryGnb.ue[0].cellularNic.channelModel[0] rcvdSinrUl:mean -nan
scalar SingleCell_withSecondaryGnb.ue[0].cellularNic.channelModel[0] rcvdSinrDl:mean -nan
scalar SingleCell_withSecondaryGnb.ue[0].cellularNic.nrRlc.tm rlcPacketLossUl:mean -nan
scalar SingleCell_withSecondaryGnb.ue[0].cellularNic.nrRlc.tm rlcPacketLossUl:sum 0
scalar SingleCell_withSecondaryGnb.ue[0].cellularNic.nrRlc.tm rlcPacketLossDl:mean -nan
scalar SingleCell_withSecondaryGnb.ue[0].cellularNic.nrRlc.tm rlcPacketLossDl:sum 0
scalar SingleCell_withSecondaryGnb.ue[0].cellularNic.nrRlc.tm sentPacketToLowerLayer:count 0
scalar SingleCell_withSecondaryGnb.ue[0].cellularNic.nrRlc.tm sentPacketToLowerLayer:sum(packetBytes) 0
[...]
scalar SingleCell_withSecondaryGnb.masterEnb.sctp "Bandwidth 5:10.0.4.2:starttime" nan
scalar SingleCell_withSecondaryGnb.masterEnb.sctp "Bandwidth 5:10.0.4.2:endtime" nan
scalar SingleCell_withSecondaryGnb.masterEnb.sctp "RTO 5:10.0.4.2:count" 0
scalar SingleCell_withSecondaryGnb.masterEnb.sctp "RTO 5:10.0.4.2:sum" 0
scalar SingleCell_withSecondaryGnb.masterEnb.sctp "RTO 5:10.0.4.2:sumweights" 0
scalar SingleCell_withSecondaryGnb.masterEnb.sctp "RTO 5:10.0.4.2:mean" -nan
scalar SingleCell_withSecondaryGnb.masterEnb.sctp "RTO 5:10.0.4.2:stddev" nan
scalar SingleCell_withSecondaryGnb.masterEnb.sctp "RTO 5:10.0.4.2:min" inf
scalar SingleCell_withSecondaryGnb.masterEnb.sctp "RTO 5:10.0.4.2:max" -inf
scalar SingleCell_withSecondaryGnb.masterEnb.sctp "RTO 5:10.0.4.2:starttime" nan
scalar SingleCell_withSecondaryGnb.masterEnb.sctp "RTO 5:10.0.4.2:endtime" nan
scalar SingleCell_withSecondaryGnb.masterEnb.sctp "Slow Start Threshold 5:10.0.6.1:count" 0
scalar SingleCell_withSecondaryGnb.masterEnb.sctp "Slow Start Threshold 5:10.0.6.1:sum" 0
scalar SingleCell_withSecondaryGnb.masterEnb.sctp "Slow Start Threshold 5:10.0.6.1:sumweights" 0
scalar SingleCell_withSecondaryGnb.masterEnb.sctp "Slow Start Threshold 5:10.0.6.1:mean" -nan
scalar SingleCell_withSecondaryGnb.masterEnb.sctp "Slow Start Threshold 5:10.0.6.1:stddev" nan
scalar SingleCell_withSecondaryGnb.masterEnb.sctp "Slow Start Threshold 5:10.0.6.1:min" inf
scalar SingleCell_withSecondaryGnb.masterEnb.sctp "Slow Start Threshold 5:10.0.6.1:max" -inf
scalar SingleCell_withSecondaryGnb.masterEnb.sctp "Slow Start Threshold 5:10.0.6.1:starttime" nan
scalar SingleCell_withSecondaryGnb.masterEnb.sctp "Slow Start Threshold 5:10.0.6.1:endtime" nan
scalar SingleCell_withSecondaryGnb.masterEnb.sctp "Congestion Window 5:10.0.6.1:count" 0
scalar SingleCell_withSecondaryGnb.masterEnb.sctp "Congestion Window 5:10.0.6.1:sum" 0
scalar SingleCell_withSecondaryGnb.masterEnb.sctp "Congestion Window 5:10.0.6.1:sumweights" 0
scalar SingleCell_withSecondaryGnb.masterEnb.sctp "Congestion Window 5:10.0.6.1:mean" -nan
scalar SingleCell_withSecondaryGnb.masterEnb.sctp "Congestion Window 5:10.0.6.1:stddev" nan
scalar SingleCell_withSecondaryGnb.masterEnb.sctp "Congestion Window 5:10.0.6.1:min" inf
scalar SingleCell_withSecondaryGnb.masterEnb.sctp "Congestion Window 5:10.0.6.1:max" -inf
scalar SingleCell_withSecondaryGnb.masterEnb.sctp "Congestion Window 5:10.0.6.1:starttime" nan
scalar SingleCell_withSecondaryGnb.masterEnb.sctp "Congestion Window 5:10.0.6.1:endtime" nan
scalar SingleCell_withSecondaryGnb.masterEnb.sctp "Bandwidth 5:10.0.6.1:count" 0
scalar SingleCell_withSecondaryGnb.masterEnb.sctp "Bandwidth 5:10.0.6.1:sum" 0
scalar SingleCell_withSecondaryGnb.masterEnb.sctp "Bandwidth 5:10.0.6.1:sumweights" 0
scalar SingleCell_withSecondaryGnb.masterEnb.sctp "Bandwidth 5:10.0.6.1:mean" -nan
scalar SingleCell_withSecondaryGnb.masterEnb.sctp "Bandwidth 5:10.0.6.1:stddev" nan
scalar SingleCell_withSecondaryGnb.masterEnb.sctp "Bandwidth 5:10.0.6.1:min" inf
scalar SingleCell_withSecondaryGnb.masterEnb.sctp "Bandwidth 5:10.0.6.1:max" -inf
scalar SingleCell_withSecondaryGnb.masterEnb.sctp "Bandwidth 5:10.0.6.1:starttime" nan
scalar SingleCell_withSecondaryGnb.masterEnb.sctp "Bandwidth 5:10.0.6.1:endtime" nan
scalar SingleCell_withSecondaryGnb.masterEnb.sctp "RTO 5:10.0.6.1:count" 0
scalar SingleCell_withSecondaryGnb.masterEnb.sctp "RTO 5:10.0.6.1:sum" 0
scalar SingleCell_withSecondaryGnb.masterEnb.sctp "RTO 5:10.0.6.1:sumweights" 0
scalar SingleCell_withSecondaryGnb.masterEnb.sctp "RTO 5:10.0.6.1:mean" -nan
scalar SingleCell_withSecondaryGnb.masterEnb.sctp "RTO 5:10.0.6.1:stddev" nan
scalar SingleCell_withSecondaryGnb.masterEnb.sctp "RTO 5:10.0.6.1:min" inf
scalar SingleCell_withSecondaryGnb.masterEnb.sctp "RTO 5:10.0.6.1:max" -inf
scalar SingleCell_withSecondaryGnb.masterEnb.sctp "RTO 5:10.0.6.1:starttime" nan
scalar SingleCell_withSecondaryGnb.masterEnb.sctp "RTO 5:10.0.6.1:endtime" nan
scalar SingleCell_withSecondaryGnb.masterEnb.sctp "Slow Start Threshold 5:10.0.7.1:count" 0
scalar SingleCell_withSecondaryGnb.masterEnb.sctp "Slow Start Threshold 5:10.0.7.1:sum" 0
scalar SingleCell_withSecondaryGnb.masterEnb.sctp "Slow Start Threshold 5:10.0.7.1:sumweights" 0
scalar SingleCell_withSecondaryGnb.masterEnb.sctp "Slow Start Threshold 5:10.0.7.1:mean" -nan
scalar SingleCell_withSecondaryGnb.masterEnb.sctp "Slow Start Threshold 5:10.0.7.1:stddev" nan
scalar SingleCell_withSecondaryGnb.masterEnb.sctp "Slow Start Threshold 5:10.0.7.1:min" inf
scalar SingleCell_withSecondaryGnb.masterEnb.sctp "Slow Start Threshold 5:10.0.7.1:max" -inf
scalar SingleCell_withSecondaryGnb.masterEnb.sctp "Slow Start Threshold 5:10.0.7.1:starttime" nan
scalar SingleCell_withSecondaryGnb.masterEnb.sctp "Slow Start Threshold 5:10.0.7.1:endtime" nan
scalar SingleCell_withSecondaryGnb.masterEnb.sctp "Congestion Window 5:10.0.7.1:count" 0
scalar SingleCell_withSecondaryGnb.masterEnb.sctp "Congestion Window 5:10.0.7.1:sum" 0
scalar SingleCell_withSecondaryGnb.masterEnb.sctp "Congestion Window 5:10.0.7.1:sumweights" 0
scalar SingleCell_withSecondaryGnb.masterEnb.sctp "Congestion Window 5:10.0.7.1:mean" -nan
scalar SingleCell_withSecondaryGnb.masterEnb.sctp "Congestion Window 5:10.0.7.1:stddev" nan
scalar SingleCell_withSecondaryGnb.masterEnb.sctp "Congestion Window 5:10.0.7.1:min" inf
scalar SingleCell_withSecondaryGnb.masterEnb.sctp "Congestion Window 5:10.0.7.1:max" -inf
scalar SingleCell_withSecondaryGnb.masterEnb.sctp "Congestion Window 5:10.0.7.1:starttime" nan
scalar SingleCell_withSecondaryGnb.masterEnb.sctp "Congestion Window 5:10.0.7.1:endtime" nan
scalar SingleCell_withSecondaryGnb.masterEnb.sctp "Bandwidth 5:10.0.7.1:count" 0
scalar SingleCell_withSecondaryGnb.masterEnb.sctp "Bandwidth 5:10.0.7.1:sum" 0
scalar SingleCell_withSecondaryGnb.masterEnb.sctp "Bandwidth 5:10.0.7.1:sumweights" 0
scalar SingleCell_withSecondaryGnb.masterEnb.sctp "Bandwidth 5:10.0.7.1:mean" -nan
scalar SingleCell_withSecondaryGnb.masterEnb.sctp "Bandwidth 5:10.0.7.1:stddev" nan
scalar SingleCell_withSecondaryGnb.masterEnb.sctp "Bandwidth 5:10.0.7.1:min" inf
scalar SingleCell_withSecondaryGnb.masterEnb.sctp "Bandwidth 5:10.0.7.1:max" -inf
scalar SingleCell_withSecondaryGnb.masterEnb.sctp "Bandwidth 5:10.0.7.1:starttime" nan
scalar SingleCell_withSecondaryGnb.masterEnb.sctp "Bandwidth 5:10.0.7.1:endtime" nan
scalar SingleCell_withSecondaryGnb.masterEnb.sctp "RTO 5:10.0.7.1:count" 0
scalar SingleCell_withSecondaryGnb.masterEnb.sctp "RTO 5:10.0.7.1:sum" 0
scalar SingleCell_withSecondaryGnb.masterEnb.sctp "RTO 5:10.0.7.1:sumweights" 0
scalar SingleCell_withSecondaryGnb.masterEnb.sctp "RTO 5:10.0.7.1:mean" -nan
scalar SingleCell_withSecondaryGnb.masterEnb.sctp "RTO 5:10.0.7.1:stddev" nan
scalar SingleCell_withSecondaryGnb.masterEnb.sctp "RTO 5:10.0.7.1:min" inf
scalar SingleCell_withSecondaryGnb.masterEnb.sctp "RTO 5:10.0.7.1:max" -inf
scalar SingleCell_withSecondaryGnb.masterEnb.sctp "RTO 5:10.0.7.1:starttime" nan
scalar SingleCell_withSecondaryGnb.masterEnb.sctp "RTO 5:10.0.7.1:endtime" nan
scalar SingleCell_withSecondaryGnb.secondaryGnb.sctp "Slow Start Threshold 9:10.0.2.2:count" 0
scalar SingleCell_withSecondaryGnb.secondaryGnb.sctp "Slow Start Threshold 9:10.0.2.2:sum" 0
scalar SingleCell_withSecondaryGnb.secondaryGnb.sctp "Slow Start Threshold 9:10.0.2.2:sumweights" 0
scalar SingleCell_withSecondaryGnb.secondaryGnb.sctp "Slow Start Threshold 9:10.0.2.2:mean" -nan
scalar SingleCell_withSecondaryGnb.secondaryGnb.sctp "Slow Start Threshold 9:10.0.2.2:stddev" nan
scalar SingleCell_withSecondaryGnb.secondaryGnb.sctp "Slow Start Threshold 9:10.0.2.2:min" inf
scalar SingleCell_withSecondaryGnb.secondaryGnb.sctp "Slow Start Threshold 9:10.0.2.2:max" -inf
scalar SingleCell_withSecondaryGnb.secondaryGnb.sctp "Slow Start Threshold 9:10.0.2.2:starttime" nan
scalar SingleCell_withSecondaryGnb.secondaryGnb.sctp "Slow Start Threshold 9:10.0.2.2:endtime" nan
scalar SingleCell_withSecondaryGnb.secondaryGnb.sctp "Congestion Window 9:10.0.2.2:count" 0
scalar SingleCell_withSecondaryGnb.secondaryGnb.sctp "Congestion Window 9:10.0.2.2:sum" 0
scalar SingleCell_withSecondaryGnb.secondaryGnb.sctp "Congestion Window 9:10.0.2.2:sumweights" 0
scalar SingleCell_withSecondaryGnb.secondaryGnb.sctp "Congestion Window 9:10.0.2.2:mean" -nan
scalar SingleCell_withSecondaryGnb.secondaryGnb.sctp "Congestion Window 9:10.0.2.2:stddev" nan
scalar SingleCell_withSecondaryGnb.secondaryGnb.sctp "Congestion Window 9:10.0.2.2:min" inf
scalar SingleCell_withSecondaryGnb.secondaryGnb.sctp "Congestion Window 9:10.0.2.2:max" -inf
scalar SingleCell_withSecondaryGnb.secondaryGnb.sctp "Congestion Window 9:10.0.2.2:starttime" nan
scalar SingleCell_withSecondaryGnb.secondaryGnb.sctp "Congestion Window 9:10.0.2.2:endtime" nan
scalar SingleCell_withSecondaryGnb.secondaryGnb.sctp "Bandwidth 9:10.0.2.2:count" 0
scalar SingleCell_withSecondaryGnb.secondaryGnb.sctp "Bandwidth 9:10.0.2.2:sum" 0
scalar SingleCell_withSecondaryGnb.secondaryGnb.sctp "Bandwidth 9:10.0.2.2:sumweights" 0
scalar SingleCell_withSecondaryGnb.secondaryGnb.sctp "Bandwidth 9:10.0.2.2:mean" -nan
scalar SingleCell_withSecondaryGnb.secondaryGnb.sctp "Bandwidth 9:10.0.2.2:stddev" nan
scalar SingleCell_withSecondaryGnb.secondaryGnb.sctp "Bandwidth 9:10.0.2.2:min" inf
scalar SingleCell_withSecondaryGnb.secondaryGnb.sctp "Bandwidth 9:10.0.2.2:max" -inf
scalar SingleCell_withSecondaryGnb.secondaryGnb.sctp "Bandwidth 9:10.0.2.2:starttime" nan
scalar SingleCell_withSecondaryGnb.secondaryGnb.sctp "Bandwidth 9:10.0.2.2:endtime" nan
scalar SingleCell_withSecondaryGnb.secondaryGnb.sctp "RTO 9:10.0.2.2:count" 0
scalar SingleCell_withSecondaryGnb.secondaryGnb.sctp "RTO 9:10.0.2.2:sum" 0
scalar SingleCell_withSecondaryGnb.secondaryGnb.sctp "RTO 9:10.0.2.2:sumweights" 0
scalar SingleCell_withSecondaryGnb.secondaryGnb.sctp "RTO 9:10.0.2.2:mean" -nan
scalar SingleCell_withSecondaryGnb.secondaryGnb.sctp "RTO 9:10.0.2.2:stddev" nan
scalar SingleCell_withSecondaryGnb.secondaryGnb.sctp "RTO 9:10.0.2.2:min" inf
scalar SingleCell_withSecondaryGnb.secondaryGnb.sctp "RTO 9:10.0.2.2:max" -inf
scalar SingleCell_withSecondaryGnb.secondaryGnb.sctp "RTO 9:10.0.2.2:starttime" nan
scalar SingleCell_withSecondaryGnb.secondaryGnb.sctp "RTO 9:10.0.2.2:endtime" nan
scalar SingleCell_withSecondaryGnb.secondaryGnb.sctp "Slow Start Threshold 9:10.0.3.1:count" 0
scalar SingleCell_withSecondaryGnb.secondaryGnb.sctp "Slow Start Threshold 9:10.0.3.1:sum" 0
scalar SingleCell_withSecondaryGnb.secondaryGnb.sctp "Slow Start Threshold 9:10.0.3.1:sumweights" 0
scalar SingleCell_withSecondaryGnb.secondaryGnb.sctp "Slow Start Threshold 9:10.0.3.1:mean" -nan
scalar SingleCell_withSecondaryGnb.secondaryGnb.sctp "Slow Start Threshold 9:10.0.3.1:stddev" nan
scalar SingleCell_withSecondaryGnb.secondaryGnb.sctp "Slow Start Threshold 9:10.0.3.1:min" inf
scalar SingleCell_withSecondaryGnb.secondaryGnb.sctp "Slow Start Threshold 9:10.0.3.1:max" -inf
scalar SingleCell_withSecondaryGnb.secondaryGnb.sctp "Slow Start Threshold 9:10.0.3.1:starttime" nan
scalar SingleCell_withSecondaryGnb.secondaryGnb.sctp "Slow Start Threshold 9:10.0.3.1:endtime" nan
scalar SingleCell_withSecondaryGnb.secondaryGnb.sctp "Congestion Window 9:10.0.3.1:count" 0
scalar SingleCell_withSecondaryGnb.secondaryGnb.sctp "Congestion Window 9:10.0.3.1:sum" 0
scalar SingleCell_withSecondaryGnb.secondaryGnb.sctp "Congestion Window 9:10.0.3.1:sumweights" 0
scalar SingleCell_withSecondaryGnb.secondaryGnb.sctp "Congestion Window 9:10.0.3.1:mean" -nan
scalar SingleCell_withSecondaryGnb.secondaryGnb.sctp "Congestion Window 9:10.0.3.1:stddev" nan
scalar SingleCell_withSecondaryGnb.secondaryGnb.sctp "Congestion Window 9:10.0.3.1:min" inf
scalar SingleCell_withSecondaryGnb.secondaryGnb.sctp "Congestion Window 9:10.0.3.1:max" -inf
scalar SingleCell_withSecondaryGnb.secondaryGnb.sctp "Congestion Window 9:10.0.3.1:starttime" nan
scalar SingleCell_withSecondaryGnb.secondaryGnb.sctp "Congestion Window 9:10.0.3.1:endtime" nan
scalar SingleCell_withSecondaryGnb.secondaryGnb.sctp "Bandwidth 9:10.0.3.1:count" 0
scalar SingleCell_withSecondaryGnb.secondaryGnb.sctp "Bandwidth 9:10.0.3.1:sum" 0
scalar SingleCell_withSecondaryGnb.secondaryGnb.sctp "Bandwidth 9:10.0.3.1:sumweights" 0
scalar SingleCell_withSecondaryGnb.secondaryGnb.sctp "Bandwidth 9:10.0.3.1:mean" -nan
scalar SingleCell_withSecondaryGnb.secondaryGnb.sctp "Bandwidth 9:10.0.3.1:stddev" nan
scalar SingleCell_withSecondaryGnb.secondaryGnb.sctp "Bandwidth 9:10.0.3.1:min" inf
scalar SingleCell_withSecondaryGnb.secondaryGnb.sctp "Bandwidth 9:10.0.3.1:max" -inf
scalar SingleCell_withSecondaryGnb.secondaryGnb.sctp "Bandwidth 9:10.0.3.1:starttime" nan
scalar SingleCell_withSecondaryGnb.secondaryGnb.sctp "Bandwidth 9:10.0.3.1:endtime" nan
scalar SingleCell_withSecondaryGnb.secondaryGnb.sctp "RTO 9:10.0.3.1:count" 0
scalar SingleCell_withSecondaryGnb.secondaryGnb.sctp "RTO 9:10.0.3.1:sum" 0
scalar SingleCell_withSecondaryGnb.secondaryGnb.sctp "RTO 9:10.0.3.1:sumweights" 0
scalar SingleCell_withSecondaryGnb.secondaryGnb.sctp "RTO 9:10.0.3.1:mean" -nan
scalar SingleCell_withSecondaryGnb.secondaryGnb.sctp "RTO 9:10.0.3.1:stddev" nan
scalar SingleCell_withSecondaryGnb.secondaryGnb.sctp "RTO 9:10.0.3.1:min" inf
scalar SingleCell_withSecondaryGnb.secondaryGnb.sctp "RTO 9:10.0.3.1:max" -inf
scalar SingleCell_withSecondaryGnb.secondaryGnb.sctp "RTO 9:10.0.3.1:starttime" nan
scalar SingleCell_withSecondaryGnb.secondaryGnb.sctp "RTO 9:10.0.3.1:endtime" nan
scalar SingleCell_withSecondaryGnb.secondaryGnb.sctp "Slow Start Threshold 9:10.0.4.1:count" 0
scalar SingleCell_withSecondaryGnb.secondaryGnb.sctp "Slow Start Threshold 9:10.0.4.1:sum" 0
scalar SingleCell_withSecondaryGnb.secondaryGnb.sctp "Slow Start Threshold 9:10.0.4.1:sumweights" 0
scalar SingleCell_withSecondaryGnb.secondaryGnb.sctp "Slow Start Threshold 9:10.0.4.1:mean" -nan
scalar SingleCell_withSecondaryGnb.secondaryGnb.sctp "Slow Start Threshold 9:10.0.4.1:stddev" nan
scalar SingleCell_withSecondaryGnb.secondaryGnb.sctp "Slow Start Threshold 9:10.0.4.1:min" inf
scalar SingleCell_withSecondaryGnb.secondaryGnb.sctp "Slow Start Threshold 9:10.0.4.1:max" -inf
scalar SingleCell_withSecondaryGnb.secondaryGnb.sctp "Slow Start Threshold 9:10.0.4.1:starttime" nan
scalar SingleCell_withSecondaryGnb.secondaryGnb.sctp "Slow Start Threshold 9:10.0.4.1:endtime" nan
scalar SingleCell_withSecondaryGnb.secondaryGnb.sctp "Congestion Window 9:10.0.4.1:count" 0
scalar SingleCell_withSecondaryGnb.secondaryGnb.sctp "Congestion Window 9:10.0.4.1:sum" 0
scalar SingleCell_withSecondaryGnb.secondaryGnb.sctp "Congestion Window 9:10.0.4.1:sumweights" 0
scalar SingleCell_withSecondaryGnb.secondaryGnb.sctp "Congestion Window 9:10.0.4.1:mean" -nan
scalar SingleCell_withSecondaryGnb.secondaryGnb.sctp "Congestion Window 9:10.0.4.1:stddev" nan
scalar SingleCell_withSecondaryGnb.secondaryGnb.sctp "Congestion Window 9:10.0.4.1:min" inf
scalar SingleCell_withSecondaryGnb.secondaryGnb.sctp "Congestion Window 9:10.0.4.1:max" -inf
scalar SingleCell_withSecondaryGnb.secondaryGnb.sctp "Congestion Window 9:10.0.4.1:starttime" nan
scalar SingleCell_withSecondaryGnb.secondaryGnb.sctp "Congestion Window 9:10.0.4.1:endtime" nan
scalar SingleCell_withSecondaryGnb.secondaryGnb.sctp "Bandwidth 9:10.0.4.1:count" 0
scalar SingleCell_withSecondaryGnb.secondaryGnb.sctp "Bandwidth 9:10.0.4.1:sum" 0
scalar SingleCell_withSecondaryGnb.secondaryGnb.sctp "Bandwidth 9:10.0.4.1:sumweights" 0
scalar SingleCell_withSecondaryGnb.secondaryGnb.sctp "Bandwidth 9:10.0.4.1:mean" -nan
scalar SingleCell_withSecondaryGnb.secondaryGnb.sctp "Bandwidth 9:10.0.4.1:stddev" nan
scalar SingleCell_withSecondaryGnb.secondaryGnb.sctp "Bandwidth 9:10.0.4.1:min" inf
scalar SingleCell_withSecondaryGnb.secondaryGnb.sctp "Bandwidth 9:10.0.4.1:max" -inf
scalar SingleCell_withSecondaryGnb.secondaryGnb.sctp "Bandwidth 9:10.0.4.1:starttime" nan
scalar SingleCell_withSecondaryGnb.secondaryGnb.sctp "Bandwidth 9:10.0.4.1:endtime" nan
scalar SingleCell_withSecondaryGnb.secondaryGnb.sctp "RTO 9:10.0.4.1:count" 0
scalar SingleCell_withSecondaryGnb.secondaryGnb.sctp "RTO 9:10.0.4.1:sum" 0
scalar SingleCell_withSecondaryGnb.secondaryGnb.sctp "RTO 9:10.0.4.1:sumweights" 0
scalar SingleCell_withSecondaryGnb.secondaryGnb.sctp "RTO 9:10.0.4.1:mean" -nan
scalar SingleCell_withSecondaryGnb.secondaryGnb.sctp "RTO 9:10.0.4.1:stddev" nan
scalar SingleCell_withSecondaryGnb.secondaryGnb.sctp "RTO 9:10.0.4.1:min" inf
scalar SingleCell_withSecondaryGnb.secondaryGnb.sctp "RTO 9:10.0.4.1:max" -inf
scalar SingleCell_withSecondaryGnb.secondaryGnb.sctp "RTO 9:10.0.4.1:starttime" nan
scalar SingleCell_withSecondaryGnb.secondaryGnb.sctp "RTO 9:10.0.4.1:endtime" nan
scalar SingleCell_withSecondaryGnb.secondaryGnb.sctp "Slow Start Threshold 9:10.0.5.1:count" 0
scalar SingleCell_withSecondaryGnb.secondaryGnb.sctp "Slow Start Threshold 9:10.0.5.1:sum" 0
scalar SingleCell_withSecondaryGnb.secondaryGnb.sctp "Slow Start Threshold 9:10.0.5.1:sumweights" 0
scalar SingleCell_withSecondaryGnb.secondaryGnb.sctp "Slow Start Threshold 9:10.0.5.1:mean" -nan
scalar SingleCell_withSecondaryGnb.secondaryGnb.sctp "Slow Start Threshold 9:10.0.5.1:stddev" nan
scalar SingleCell_withSecondaryGnb.secondaryGnb.sctp "Slow Start Threshold 9:10.0.5.1:min" inf
scalar SingleCell_withSecondaryGnb.secondaryGnb.sctp "Slow Start Threshold 9:10.0.5.1:max" -inf
scalar SingleCell_withSecondaryGnb.secondaryGnb.sctp "Slow Start Threshold 9:10.0.5.1:starttime" nan
scalar SingleCell_withSecondaryGnb.secondaryGnb.sctp "Slow Start Threshold 9:10.0.5.1:endtime" nan
scalar SingleCell_withSecondaryGnb.secondaryGnb.sctp "Congestion Window 9:10.0.5.1:count" 0
scalar SingleCell_withSecondaryGnb.secondaryGnb.sctp "Congestion Window 9:10.0.5.1:sum" 0
scalar SingleCell_withSecondaryGnb.secondaryGnb.sctp "Congestion Window 9:10.0.5.1:sumweights" 0
scalar SingleCell_withSecondaryGnb.secondaryGnb.sctp "Congestion Window 9:10.0.5.1:mean" -nan
scalar SingleCell_withSecondaryGnb.secondaryGnb.sctp "Congestion Window 9:10.0.5.1:stddev" nan
scalar SingleCell_withSecondaryGnb.secondaryGnb.sctp "Congestion Window 9:10.0.5.1:min" inf
scalar SingleCell_withSecondaryGnb.secondaryGnb.sctp "Congestion Window 9:10.0.5.1:max" -inf
scalar SingleCell_withSecondaryGnb.secondaryGnb.sctp "Congestion Window 9:10.0.5.1:starttime" nan
scalar SingleCell_withSecondaryGnb.secondaryGnb.sctp "Congestion Window 9:10.0.5.1:endtime" nan
scalar SingleCell_withSecondaryGnb.secondaryGnb.sctp "Bandwidth 9:10.0.5.1:count" 0
scalar SingleCell_withSecondaryGnb.secondaryGnb.sctp "Bandwidth 9:10.0.5.1:sum" 0
scalar SingleCell_withSecondaryGnb.secondaryGnb.sctp "Bandwidth 9:10.0.5.1:sumweights" 0
scalar SingleCell_withSecondaryGnb.secondaryGnb.sctp "Bandwidth 9:10.0.5.1:mean" -nan
scalar SingleCell_withSecondaryGnb.secondaryGnb.sctp "Bandwidth 9:10.0.5.1:stddev" nan
scalar SingleCell_withSecondaryGnb.secondaryGnb.sctp "Bandwidth 9:10.0.5.1:min" inf
scalar SingleCell_withSecondaryGnb.secondaryGnb.sctp "Bandwidth 9:10.0.5.1:max" -inf
scalar SingleCell_withSecondaryGnb.secondaryGnb.sctp "Bandwidth 9:10.0.5.1:starttime" nan
scalar SingleCell_withSecondaryGnb.secondaryGnb.sctp "Bandwidth 9:10.0.5.1:endtime" nan
scalar SingleCell_withSecondaryGnb.secondaryGnb.sctp "RTO 9:10.0.5.1:count" 0
scalar SingleCell_withSecondaryGnb.secondaryGnb.sctp "RTO 9:10.0.5.1:sum" 0
scalar SingleCell_withSecondaryGnb.secondaryGnb.sctp "RTO 9:10.0.5.1:sumweights" 0
scalar SingleCell_withSecondaryGnb.secondaryGnb.sctp "RTO 9:10.0.5.1:mean" -nan
scalar SingleCell_withSecondaryGnb.secondaryGnb.sctp "RTO 9:10.0.5.1:stddev" nan
scalar SingleCell_withSecondaryGnb.secondaryGnb.sctp "RTO 9:10.0.5.1:min" inf
scalar SingleCell_withSecondaryGnb.secondaryGnb.sctp "RTO 9:10.0.5.1:max" -inf
scalar SingleCell_withSecondaryGnb.secondaryGnb.sctp "RTO 9:10.0.5.1:starttime" nan
scalar SingleCell_withSecondaryGnb.secondaryGnb.sctp "RTO 9:10.0.5.1:endtime" nan

