version 3
run DoubleConnection-CBR-UL-0-20260710-14:00:29-781839
attr configname DoubleConnection-CBR-UL
attr datetime 20260710-14:00:29
attr datetimef 20260710-140029
attr experiment DoubleConnection-CBR-UL
attr inifile omnetpp.ini
attr iterationvars ""
attr iterationvarsd ""
attr iterationvarsf ""
attr measurement ""
attr network simu5g.simulations.nr.networks.MultiCell_withSecondaryGnb
attr processid 781839
attr repetition 0
attr replication #0
attr resultdir results
attr runnumber 0
attr seedset 0
config **.param-recording false
config image-path /home/andras/projects/Simu5G-fork/simu5g-fork/images
config output-scalar-file results/omnetpp.ini-DoubleConnection-CBR-UL-#0.sca
config output-scalar-precision 17
config output-vector-file results/omnetpp.ini-DoubleConnection-CBR-UL-#0.vec
config output-vector-precision 17
config record-eventlog false
config sim-time-limit 40s
config extends DualConnectivity
config description "two CBR uplink connections - one via eNodeB, one via gNodeB"
config *.ue[*].numApps 2
config *.server.numApps 2
config *.server.app[*].typename CbrReceiver
config *.server.app[*].localPort 3000+ancestorIndex(0)
config *.ue[*].app[*].typename CbrSender
config *.ue[*].app[*].destAddress "\"server\""
config *.ue[*].app[*].packetSize 1000B
config *.ue[*].app[*].samplingTime 0.05s
config *.ue[*].app[*].localPort 3088+ancestorIndex(0)
config *.ue[*].app[*].destPort 3000+ancestorIndex(0)
config *.ue[*].app[*].startTime "uniform(0.02s, 0.05s)"
config *.ue[*].app[*].finishTime 39.9s
config *.ue[*].app[0].tos -1
config *.ue[*].app[1].tos 10
config network simu5g.simulations.nr.networks.MultiCell_withSecondaryGnb
config description "Base configuration, do not run this config!"
config *.masterEnb1.mobility.initialX 300m
config *.masterEnb1.mobility.initialY 300m
config *.secondaryGnb1.mobility.initialX 500m
config *.secondaryGnb1.mobility.initialY 400m
config *.masterEnb2.mobility.initialX 700m
config *.masterEnb2.mobility.initialY 300m
config *.secondaryGnb2.mobility.initialX 800m
config *.secondaryGnb2.mobility.initialY 400m
config *.masterEnb*.cellularNic.typename LteNicEnbD2D
config *.masterEnb*.cellularNic.pdcp.typename NrPdcpEnb
config *.secondaryGnb1.masterId 1
config *.secondaryGnb2.masterId 3
config **.dualConnectivityEnabled true
config **.downlinkInterference true
config **.uplinkInterference true
config *.masterEnb*.cellularNic.phy.eNodeBTxPower 40dBm
config *.secondaryGnb*.cellularNic.phy.eNodeBTxPower 20dBm
config **.minRssi 1dB
config *.carrierAggregation.numComponentCarriers 2
config *.carrierAggregation.componentCarrier[0].carrierFrequency 2GHz
config *.carrierAggregation.componentCarrier[0].numBands 50
config *.carrierAggregation.componentCarrier[0].numerologyIndex 0
config *.carrierAggregation.componentCarrier[1].carrierFrequency 4GHz
config *.carrierAggregation.componentCarrier[1].numBands 50
config *.carrierAggregation.componentCarrier[1].numerologyIndex 0
config *.masterEnb*.cellularNic.numCarriers 1
config *.masterEnb*.cellularNic.channelModel[0].componentCarrierModule "\"carrierAggregation.componentCarrier[0]\""
config *.secondaryGnb*.cellularNic.numCarriers 1
config *.secondaryGnb*.cellularNic.channelModel[0].componentCarrierModule "\"carrierAggregation.componentCarrier[1]\""
config *.ue[*].cellularNic.numCarriers 1
config *.ue[*].cellularNic.numNrCarriers 1
config *.ue[*].cellularNic.channelModel[0].componentCarrierModule "\"carrierAggregation.componentCarrier[0]\""
config *.ue[*].cellularNic.nrChannelModel[0].componentCarrierModule "\"carrierAggregation.componentCarrier[1]\""
config *.masterEnb*.numX2Apps 2
config *.secondaryGnb*.numX2Apps 1
config *.*.x2App[*].server.localPort "5000 + ancestorIndex(1)"
config *.masterEnb1.x2App[0].client.connectAddress "\"secondaryGnb1%x2ppp0\""
config *.masterEnb2.x2App[0].client.connectAddress "\"secondaryGnb2%x2ppp0\""
config *.secondaryGnb1.x2App[0].client.connectAddress "\"masterEnb1%x2ppp0\""
config *.secondaryGnb2.x2App[0].client.connectAddress "\"masterEnb2%x2ppp0\""
config *.masterEnb1.x2App[1].client.connectAddress "\"masterEnb2%x2ppp1\""
config *.masterEnb2.x2App[1].client.connectAddress "\"masterEnb1%x2ppp1\""
config *.numUe 1
config **.dynamicCellAssociation true
config **.enableHandover true
config *.ue[*].servingNodeId 1
config *.ue[*].nrServingNodeId 2
config *.ue[*].mobility.typename LinearMobility
config *.ue[*].mobility.initialX 300m
config *.ue[*].mobility.initialY 350m
config *.ue[*].mobility.speed 13.9mps
config *.ue[*].mobility.initialMovementHeading 0deg
config sim-time-limit 40s
config warmup-period 1s
config seed-set 0
config debug-on-errors false
config output-scalar-file results/DoubleConnection-CBR-UL/-0.sca
config output-vector-file results/DoubleConnection-CBR-UL/-0.vec
config **.vector-recording true
config **.sctp.**.scalar-recording false
config **.sctp.**.vector-recording false
config **.routingRecorder.enabled false
config **.mobility.constraintAreaMaxX 1000m
config **.mobility.constraintAreaMaxY 700m
config **.mobility.constraintAreaMinX 0m
config **.mobility.constraintAreaMinY 0m
config **.mobility.constraintAreaMinZ 0m
config **.mobility.constraintAreaMaxZ 0m
config **.mobility.initFromDisplayString false
config *.configurator.config "xmldoc(\"./demo.xml\")"
config **.sctp.nagleEnabled false
config **.sctp.enableHeartbeats false
config **.fading false
config **.shadowing false
config **.targetBler 0.01
config **.blerShift 5

scalar MultiCell_withSecondaryGnb.masterEnb1.x2App[0].client ums 1452
scalar MultiCell_withSecondaryGnb.masterEnb1.x2App[1].client ums 1452
scalar MultiCell_withSecondaryGnb.secondaryGnb1.x2App[0].client ums 1452
scalar MultiCell_withSecondaryGnb.masterEnb2.x2App[0].client ums 1452
scalar MultiCell_withSecondaryGnb.masterEnb2.x2App[1].client ums 1452
scalar MultiCell_withSecondaryGnb.secondaryGnb2.x2App[0].client ums 1452
scalar MultiCell_withSecondaryGnb.server.lo[0].lo rcvdPkFromHl:count 0
scalar MultiCell_withSecondaryGnb.server.lo[0].lo rcvdPkFromHl:sum(packetBytes) 0
scalar MultiCell_withSecondaryGnb.server.lo[0].lo passedUpPk:count 0
scalar MultiCell_withSecondaryGnb.server.lo[0].lo passedUpPk:sum(packetBytes) 0
scalar MultiCell_withSecondaryGnb.server.lo[0] packetDropInterfaceDown:count 0
scalar MultiCell_withSecondaryGnb.server.lo[0] packetDropInterfaceDown:sum(packetBytes) 0
scalar MultiCell_withSecondaryGnb.server.lo[0] packetDropNoCarrier:count 0
scalar MultiCell_withSecondaryGnb.server.lo[0] packetDropNoCarrier:sum(packetBytes) 0
scalar MultiCell_withSecondaryGnb.server.ppp[0].queue queueLength:last 0
scalar MultiCell_withSecondaryGnb.server.ppp[0].queue queueLength:max 0
scalar MultiCell_withSecondaryGnb.server.ppp[0].queue queueLength:timeavg 0
scalar MultiCell_withSecondaryGnb.server.ppp[0].queue queueBitLength:last 0
scalar MultiCell_withSecondaryGnb.server.ppp[0].queue queueBitLength:max 0
scalar MultiCell_withSecondaryGnb.server.ppp[0].queue queueBitLength:timeavg 0
scalar MultiCell_withSecondaryGnb.server.ppp[0].queue outgoingPackets:count 0
scalar MultiCell_withSecondaryGnb.server.ppp[0].queue outgoingPacketLengths:sum 0
scalar MultiCell_withSecondaryGnb.server.ppp[0].queue incomingPackets:count 0
scalar MultiCell_withSecondaryGnb.server.ppp[0].queue incomingPacketLengths:sum 0
scalar MultiCell_withSecondaryGnb.server.ppp[0].queue droppedPacketsQueueOverflow:count 0
scalar MultiCell_withSecondaryGnb.server.ppp[0].queue droppedPacketLengthsQueueOverflow:sum 0
scalar MultiCell_withSecondaryGnb.server.ppp[0].ppp transmissionState:timeavg -nan
scalar MultiCell_withSecondaryGnb.server.ppp[0].ppp rxPkOk:count 1556
scalar MultiCell_withSecondaryGnb.server.ppp[0].ppp rxPkOk:sum(packetBytes) 1610460
scalar MultiCell_withSecondaryGnb.server.ppp[0].ppp txPk:count 0
scalar MultiCell_withSecondaryGnb.server.ppp[0].ppp txPk:sum(packetBytes) 0
scalar MultiCell_withSecondaryGnb.server.ppp[0].ppp rcvdPkFromHl:count 0
scalar MultiCell_withSecondaryGnb.server.ppp[0].ppp rcvdPkFromHl:sum(packetBytes) 0
scalar MultiCell_withSecondaryGnb.server.ppp[0].ppp passedUpPk:count 1556
scalar MultiCell_withSecondaryGnb.server.ppp[0].ppp passedUpPk:sum(packetBytes) 1599568
scalar MultiCell_withSecondaryGnb.server.ppp[0].ppp packetDropIncorrectlyReceived:count 0
scalar MultiCell_withSecondaryGnb.server.ppp[0].ppp packetDropIncorrectlyReceived:sum(packetBytes) 0
scalar MultiCell_withSecondaryGnb.server.ppp[0].ppp packetDropInterfaceDown:count 0
scalar MultiCell_withSecondaryGnb.server.ppp[0].ppp packetDropInterfaceDown:sum(packetBytes) 0
scalar MultiCell_withSecondaryGnb.server.ppp[0] packetDropInterfaceDown:count 0
scalar MultiCell_withSecondaryGnb.server.ppp[0] packetDropInterfaceDown:sum(packetBytes) 0
scalar MultiCell_withSecondaryGnb.server.ppp[0] packetDropNoCarrier:count 0
scalar MultiCell_withSecondaryGnb.server.ppp[0] packetDropNoCarrier:sum(packetBytes) 0
scalar MultiCell_withSecondaryGnb.server.ipv4.ip packetDropAddressResolutionFailed:count 0
scalar MultiCell_withSecondaryGnb.server.ipv4.ip packetDropAddressResolutionFailed:sum(packetBytes) 0
scalar MultiCell_withSecondaryGnb.server.ipv4.ip packetDropHopLimitReached:count 0
scalar MultiCell_withSecondaryGnb.server.ipv4.ip packetDropHopLimitReached:sum(packetBytes) 0
scalar MultiCell_withSecondaryGnb.server.ipv4.ip packetDropForwardingDisabled:count 0
scalar MultiCell_withSecondaryGnb.server.ipv4.ip packetDropForwardingDisabled:sum(packetBytes) 0
scalar MultiCell_withSecondaryGnb.server.ipv4.ip packetDropNoInterfaceFound:count 0
scalar MultiCell_withSecondaryGnb.server.ipv4.ip packetDropNoInterfaceFound:sum(packetBytes) 0
scalar MultiCell_withSecondaryGnb.server.ipv4.ip packetDropNoRouteFound:count 0
scalar MultiCell_withSecondaryGnb.server.ipv4.ip packetDropNoRouteFound:sum(packetBytes) 0
scalar MultiCell_withSecondaryGnb.server.ipv4.ip packetDropUndefined:count 0
scalar MultiCell_withSecondaryGnb.server.ipv4.ip packetDropUndefined:sum(packetBytes) 0
scalar MultiCell_withSecondaryGnb.server.ipv4.arp arpResolutionFailed:count 0
scalar MultiCell_withSecondaryGnb.server.ipv4.arp arpResolutionCompleted:count 0
scalar MultiCell_withSecondaryGnb.server.ipv4.arp arpResolutionInitiated:count 0
scalar MultiCell_withSecondaryGnb.server.ipv4.arp arpReplySent:count 0
scalar MultiCell_withSecondaryGnb.server.ipv4.arp arpReplySent:sum(packetBytes) 0
scalar MultiCell_withSecondaryGnb.server.ipv4.arp arpRequestSent:count 0
scalar MultiCell_withSecondaryGnb.server.ipv4.arp arpRequestSent:sum(packetBytes) 0
scalar MultiCell_withSecondaryGnb.server.udp packetReceived:count 1556
scalar MultiCell_withSecondaryGnb.server.udp packetReceived:sum(packetBytes) 1568448
scalar MultiCell_withSecondaryGnb.server.udp packetSent:count 0
scalar MultiCell_withSecondaryGnb.server.udp packetSent:sum(packetBytes) 0
scalar MultiCell_withSecondaryGnb.server.udp passedUpPk:count 1556
scalar MultiCell_withSecondaryGnb.server.udp droppedPkWrongPort:count 0
scalar MultiCell_withSecondaryGnb.server.udp droppedPkBadChecksum:count 0
scalar MultiCell_withSecondaryGnb.server.app[0] cbrReceivedBytes:mean 1000
scalar MultiCell_withSecondaryGnb.server.app[0] cbrReceivedBytes:sum 778000
scalar MultiCell_withSecondaryGnb.server.app[0] cbrReceivedThroughput:simu5g_rateavg 19948.717948717949
scalar MultiCell_withSecondaryGnb.server.app[0] cbrJitter:mean -nan
scalar MultiCell_withSecondaryGnb.server.app[0] cbrFrameDelay:mean 0.014290484061724977
scalar MultiCell_withSecondaryGnb.server.app[0] cbrFrameLoss:mean -0.0012547051442910462
scalar MultiCell_withSecondaryGnb.server.app[1] cbrReceivedBytes:mean 1000
scalar MultiCell_withSecondaryGnb.server.app[1] cbrReceivedBytes:sum 778000
scalar MultiCell_withSecondaryGnb.server.app[1] cbrReceivedThroughput:simu5g_rateavg 19948.717948717949
scalar MultiCell_withSecondaryGnb.server.app[1] cbrJitter:mean -nan
scalar MultiCell_withSecondaryGnb.server.app[1] cbrFrameDelay:mean 0.014667887825563049
scalar MultiCell_withSecondaryGnb.server.app[1] cbrFrameLoss:mean -0.0012547051442910462
scalar MultiCell_withSecondaryGnb.router.lo[0].lo rcvdPkFromHl:count 0
scalar MultiCell_withSecondaryGnb.router.lo[0].lo rcvdPkFromHl:sum(packetBytes) 0
scalar MultiCell_withSecondaryGnb.router.lo[0].lo passedUpPk:count 0
scalar MultiCell_withSecondaryGnb.router.lo[0].lo passedUpPk:sum(packetBytes) 0
scalar MultiCell_withSecondaryGnb.router.lo[0] packetDropInterfaceDown:count 0
scalar MultiCell_withSecondaryGnb.router.lo[0] packetDropInterfaceDown:sum(packetBytes) 0
scalar MultiCell_withSecondaryGnb.router.lo[0] packetDropNoCarrier:count 0
scalar MultiCell_withSecondaryGnb.router.lo[0] packetDropNoCarrier:sum(packetBytes) 0
scalar MultiCell_withSecondaryGnb.router.ppp[0].queue queueLength:last 0
scalar MultiCell_withSecondaryGnb.router.ppp[0].queue queueLength:max 0
scalar MultiCell_withSecondaryGnb.router.ppp[0].queue queueLength:timeavg 0
scalar MultiCell_withSecondaryGnb.router.ppp[0].queue queueBitLength:last 0
scalar MultiCell_withSecondaryGnb.router.ppp[0].queue queueBitLength:max 0
scalar MultiCell_withSecondaryGnb.router.ppp[0].queue queueBitLength:timeavg 0
scalar MultiCell_withSecondaryGnb.router.ppp[0].queue outgoingPackets:count 1556
scalar MultiCell_withSecondaryGnb.router.ppp[0].queue outgoingPacketLengths:sum 12796544
scalar MultiCell_withSecondaryGnb.router.ppp[0].queue incomingPackets:count 1556
scalar MultiCell_withSecondaryGnb.router.ppp[0].queue incomingPacketLengths:sum 12796544
scalar MultiCell_withSecondaryGnb.router.ppp[0].queue droppedPacketsQueueOverflow:count 0
scalar MultiCell_withSecondaryGnb.router.ppp[0].queue droppedPacketLengthsQueueOverflow:sum 0
scalar MultiCell_withSecondaryGnb.router.ppp[0].ppp transmissionState:timeavg 3.3070693806935454e-05
scalar MultiCell_withSecondaryGnb.router.ppp[0].ppp rxPkOk:count 0
scalar MultiCell_withSecondaryGnb.router.ppp[0].ppp rxPkOk:sum(packetBytes) 0
scalar MultiCell_withSecondaryGnb.router.ppp[0].ppp txPk:count 1556
scalar MultiCell_withSecondaryGnb.router.ppp[0].ppp txPk:sum(packetBytes) 1610460
scalar MultiCell_withSecondaryGnb.router.ppp[0].ppp rcvdPkFromHl:count 1556
scalar MultiCell_withSecondaryGnb.router.ppp[0].ppp rcvdPkFromHl:sum(packetBytes) 1599568
scalar MultiCell_withSecondaryGnb.router.ppp[0].ppp passedUpPk:count 0
scalar MultiCell_withSecondaryGnb.router.ppp[0].ppp passedUpPk:sum(packetBytes) 0
scalar MultiCell_withSecondaryGnb.router.ppp[0].ppp packetDropIncorrectlyReceived:count 0
scalar MultiCell_withSecondaryGnb.router.ppp[0].ppp packetDropIncorrectlyReceived:sum(packetBytes) 0
scalar MultiCell_withSecondaryGnb.router.ppp[0].ppp packetDropInterfaceDown:count 0
scalar MultiCell_withSecondaryGnb.router.ppp[0].ppp packetDropInterfaceDown:sum(packetBytes) 0
scalar MultiCell_withSecondaryGnb.router.ppp[0] packetDropInterfaceDown:count 0
scalar MultiCell_withSecondaryGnb.router.ppp[0] packetDropInterfaceDown:sum(packetBytes) 0
scalar MultiCell_withSecondaryGnb.router.ppp[0] packetDropNoCarrier:count 0
scalar MultiCell_withSecondaryGnb.router.ppp[0] packetDropNoCarrier:sum(packetBytes) 0
scalar MultiCell_withSecondaryGnb.router.ppp[1].queue queueLength:last 0
scalar MultiCell_withSecondaryGnb.router.ppp[1].queue queueLength:max 0
scalar MultiCell_withSecondaryGnb.router.ppp[1].queue queueLength:timeavg 0
scalar MultiCell_withSecondaryGnb.router.ppp[1].queue queueBitLength:last 0
scalar MultiCell_withSecondaryGnb.router.ppp[1].queue queueBitLength:max 0
scalar MultiCell_withSecondaryGnb.router.ppp[1].queue queueBitLength:timeavg 0
scalar MultiCell_withSecondaryGnb.router.ppp[1].queue outgoingPackets:count 0
scalar MultiCell_withSecondaryGnb.router.ppp[1].queue outgoingPacketLengths:sum 0
scalar MultiCell_withSecondaryGnb.router.ppp[1].queue incomingPackets:count 0
scalar MultiCell_withSecondaryGnb.router.ppp[1].queue incomingPacketLengths:sum 0
scalar MultiCell_withSecondaryGnb.router.ppp[1].queue droppedPacketsQueueOverflow:count 0
scalar MultiCell_withSecondaryGnb.router.ppp[1].queue droppedPacketLengthsQueueOverflow:sum 0
scalar MultiCell_withSecondaryGnb.router.ppp[1].ppp transmissionState:timeavg -nan
scalar MultiCell_withSecondaryGnb.router.ppp[1].ppp rxPkOk:count 1556
scalar MultiCell_withSecondaryGnb.router.ppp[1].ppp rxPkOk:sum(packetBytes) 1610460
scalar MultiCell_withSecondaryGnb.router.ppp[1].ppp txPk:count 0
scalar MultiCell_withSecondaryGnb.router.ppp[1].ppp txPk:sum(packetBytes) 0
scalar MultiCell_withSecondaryGnb.router.ppp[1].ppp rcvdPkFromHl:count 0
scalar MultiCell_withSecondaryGnb.router.ppp[1].ppp rcvdPkFromHl:sum(packetBytes) 0
scalar MultiCell_withSecondaryGnb.router.ppp[1].ppp passedUpPk:count 1556
scalar MultiCell_withSecondaryGnb.router.ppp[1].ppp passedUpPk:sum(packetBytes) 1599568
scalar MultiCell_withSecondaryGnb.router.ppp[1].ppp packetDropIncorrectlyReceived:count 0
scalar MultiCell_withSecondaryGnb.router.ppp[1].ppp packetDropIncorrectlyReceived:sum(packetBytes) 0
scalar MultiCell_withSecondaryGnb.router.ppp[1].ppp packetDropInterfaceDown:count 0
scalar MultiCell_withSecondaryGnb.router.ppp[1].ppp packetDropInterfaceDown:sum(packetBytes) 0
scalar MultiCell_withSecondaryGnb.router.ppp[1] packetDropInterfaceDown:count 0
scalar MultiCell_withSecondaryGnb.router.ppp[1] packetDropInterfaceDown:sum(packetBytes) 0
scalar MultiCell_withSecondaryGnb.router.ppp[1] packetDropNoCarrier:count 0
scalar MultiCell_withSecondaryGnb.router.ppp[1] packetDropNoCarrier:sum(packetBytes) 0
scalar MultiCell_withSecondaryGnb.router.ipv4.ip packetDropAddressResolutionFailed:count 0
scalar MultiCell_withSecondaryGnb.router.ipv4.ip packetDropAddressResolutionFailed:sum(packetBytes) 0
scalar MultiCell_withSecondaryGnb.router.ipv4.ip packetDropHopLimitReached:count 0
scalar MultiCell_withSecondaryGnb.router.ipv4.ip packetDropHopLimitReached:sum(packetBytes) 0
scalar MultiCell_withSecondaryGnb.router.ipv4.ip packetDropForwardingDisabled:count 0
scalar MultiCell_withSecondaryGnb.router.ipv4.ip packetDropForwardingDisabled:sum(packetBytes) 0
scalar MultiCell_withSecondaryGnb.router.ipv4.ip packetDropNoInterfaceFound:count 0
scalar MultiCell_withSecondaryGnb.router.ipv4.ip packetDropNoInterfaceFound:sum(packetBytes) 0
scalar MultiCell_withSecondaryGnb.router.ipv4.ip packetDropNoRouteFound:count 0
scalar MultiCell_withSecondaryGnb.router.ipv4.ip packetDropNoRouteFound:sum(packetBytes) 0
scalar MultiCell_withSecondaryGnb.router.ipv4.ip packetDropUndefined:count 0
scalar MultiCell_withSecondaryGnb.router.ipv4.ip packetDropUndefined:sum(packetBytes) 0
scalar MultiCell_withSecondaryGnb.router.ipv4.arp arpResolutionFailed:count 0
scalar MultiCell_withSecondaryGnb.router.ipv4.arp arpResolutionCompleted:count 0
scalar MultiCell_withSecondaryGnb.router.ipv4.arp arpResolutionInitiated:count 0
scalar MultiCell_withSecondaryGnb.router.ipv4.arp arpReplySent:count 0
scalar MultiCell_withSecondaryGnb.router.ipv4.arp arpReplySent:sum(packetBytes) 0
scalar MultiCell_withSecondaryGnb.router.ipv4.arp arpRequestSent:count 0
scalar MultiCell_withSecondaryGnb.router.ipv4.arp arpRequestSent:sum(packetBytes) 0
scalar MultiCell_withSecondaryGnb.pgw.lo[0].lo rcvdPkFromHl:count 0
scalar MultiCell_withSecondaryGnb.pgw.lo[0].lo rcvdPkFromHl:sum(packetBytes) 0
scalar MultiCell_withSecondaryGnb.pgw.lo[0].lo passedUpPk:count 0
scalar MultiCell_withSecondaryGnb.pgw.lo[0].lo passedUpPk:sum(packetBytes) 0
scalar MultiCell_withSecondaryGnb.pgw.lo[0] packetDropInterfaceDown:count 0
scalar MultiCell_withSecondaryGnb.pgw.lo[0] packetDropInterfaceDown:sum(packetBytes) 0
scalar MultiCell_withSecondaryGnb.pgw.lo[0] packetDropNoCarrier:count 0
scalar MultiCell_withSecondaryGnb.pgw.lo[0] packetDropNoCarrier:sum(packetBytes) 0
scalar MultiCell_withSecondaryGnb.pgw.ppp[0].queue queueLength:last 0
scalar MultiCell_withSecondaryGnb.pgw.ppp[0].queue queueLength:max 0
scalar MultiCell_withSecondaryGnb.pgw.ppp[0].queue queueLength:timeavg 0
scalar MultiCell_withSecondaryGnb.pgw.ppp[0].queue queueBitLength:last 0
scalar MultiCell_withSecondaryGnb.pgw.ppp[0].queue queueBitLength:max 0
scalar MultiCell_withSecondaryGnb.pgw.ppp[0].queue queueBitLength:timeavg 0
scalar MultiCell_withSecondaryGnb.pgw.ppp[0].queue outgoingPackets:count 0
scalar MultiCell_withSecondaryGnb.pgw.ppp[0].queue outgoingPacketLengths:sum 0
scalar MultiCell_withSecondaryGnb.pgw.ppp[0].queue incomingPackets:count 0
scalar MultiCell_withSecondaryGnb.pgw.ppp[0].queue incomingPacketLengths:sum 0
scalar MultiCell_withSecondaryGnb.pgw.ppp[0].queue droppedPacketsQueueOverflow:count 0
scalar MultiCell_withSecondaryGnb.pgw.ppp[0].queue droppedPacketLengthsQueueOverflow:sum 0
scalar MultiCell_withSecondaryGnb.pgw.ppp[0].ppp transmissionState:timeavg -nan
scalar MultiCell_withSecondaryGnb.pgw.ppp[0].ppp rxPkOk:count 640
scalar MultiCell_withSecondaryGnb.pgw.ppp[0].ppp rxPkOk:sum(packetBytes) 685440
scalar MultiCell_withSecondaryGnb.pgw.ppp[0].ppp txPk:count 0
scalar MultiCell_withSecondaryGnb.pgw.ppp[0].ppp txPk:sum(packetBytes) 0
scalar MultiCell_withSecondaryGnb.pgw.ppp[0].ppp rcvdPkFromHl:count 0
scalar MultiCell_withSecondaryGnb.pgw.ppp[0].ppp rcvdPkFromHl:sum(packetBytes) 0
scalar MultiCell_withSecondaryGnb.pgw.ppp[0].ppp passedUpPk:count 640
scalar MultiCell_withSecondaryGnb.pgw.ppp[0].ppp passedUpPk:sum(packetBytes) 680960
scalar MultiCell_withSecondaryGnb.pgw.ppp[0].ppp packetDropIncorrectlyReceived:count 0
scalar MultiCell_withSecondaryGnb.pgw.ppp[0].ppp packetDropIncorrectlyReceived:sum(packetBytes) 0
scalar MultiCell_withSecondaryGnb.pgw.ppp[0].ppp packetDropInterfaceDown:count 0
scalar MultiCell_withSecondaryGnb.pgw.ppp[0].ppp packetDropInterfaceDown:sum(packetBytes) 0
scalar MultiCell_withSecondaryGnb.pgw.ppp[0] packetDropInterfaceDown:count 0
scalar MultiCell_withSecondaryGnb.pgw.ppp[0] packetDropInterfaceDown:sum(packetBytes) 0
scalar MultiCell_withSecondaryGnb.pgw.ppp[0] packetDropNoCarrier:count 0
scalar MultiCell_withSecondaryGnb.pgw.ppp[0] packetDropNoCarrier:sum(packetBytes) 0
scalar MultiCell_withSecondaryGnb.pgw.ppp[1].queue queueLength:last 0
scalar MultiCell_withSecondaryGnb.pgw.ppp[1].queue queueLength:max 0
scalar MultiCell_withSecondaryGnb.pgw.ppp[1].queue queueLength:timeavg 0
scalar MultiCell_withSecondaryGnb.pgw.ppp[1].queue queueBitLength:last 0
scalar MultiCell_withSecondaryGnb.pgw.ppp[1].queue queueBitLength:max 0
scalar MultiCell_withSecondaryGnb.pgw.ppp[1].queue queueBitLength:timeavg 0
scalar MultiCell_withSecondaryGnb.pgw.ppp[1].queue outgoingPackets:count 0
scalar MultiCell_withSecondaryGnb.pgw.ppp[1].queue outgoingPacketLengths:sum 0
scalar MultiCell_withSecondaryGnb.pgw.ppp[1].queue incomingPackets:count 0
scalar MultiCell_withSecondaryGnb.pgw.ppp[1].queue incomingPacketLengths:sum 0
scalar MultiCell_withSecondaryGnb.pgw.ppp[1].queue droppedPacketsQueueOverflow:count 0
scalar MultiCell_withSecondaryGnb.pgw.ppp[1].queue droppedPacketLengthsQueueOverflow:sum 0
scalar MultiCell_withSecondaryGnb.pgw.ppp[1].ppp transmissionState:timeavg -nan
scalar MultiCell_withSecondaryGnb.pgw.ppp[1].ppp rxPkOk:count 916
scalar MultiCell_withSecondaryGnb.pgw.ppp[1].ppp rxPkOk:sum(packetBytes) 981036
scalar MultiCell_withSecondaryGnb.pgw.ppp[1].ppp txPk:count 0
scalar MultiCell_withSecondaryGnb.pgw.ppp[1].ppp txPk:sum(packetBytes) 0
scalar MultiCell_withSecondaryGnb.pgw.ppp[1].ppp rcvdPkFromHl:count 0
scalar MultiCell_withSecondaryGnb.pgw.ppp[1].ppp rcvdPkFromHl:sum(packetBytes) 0
scalar MultiCell_withSecondaryGnb.pgw.ppp[1].ppp passedUpPk:count 916
scalar MultiCell_withSecondaryGnb.pgw.ppp[1].ppp passedUpPk:sum(packetBytes) 974624
scalar MultiCell_withSecondaryGnb.pgw.ppp[1].ppp packetDropIncorrectlyReceived:count 0
scalar MultiCell_withSecondaryGnb.pgw.ppp[1].ppp packetDropIncorrectlyReceived:sum(packetBytes) 0
scalar MultiCell_withSecondaryGnb.pgw.ppp[1].ppp packetDropInterfaceDown:count 0
scalar MultiCell_withSecondaryGnb.pgw.ppp[1].ppp packetDropInterfaceDown:sum(packetBytes) 0
scalar MultiCell_withSecondaryGnb.pgw.ppp[1] packetDropInterfaceDown:count 0
scalar MultiCell_withSecondaryGnb.pgw.ppp[1] packetDropInterfaceDown:sum(packetBytes) 0
scalar MultiCell_withSecondaryGnb.pgw.ppp[1] packetDropNoCarrier:count 0
scalar MultiCell_withSecondaryGnb.pgw.ppp[1] packetDropNoCarrier:sum(packetBytes) 0
scalar MultiCell_withSecondaryGnb.pgw.ipv4.ip packetDropAddressResolutionFailed:count 0
scalar MultiCell_withSecondaryGnb.pgw.ipv4.ip packetDropAddressResolutionFailed:sum(packetBytes) 0
scalar MultiCell_withSecondaryGnb.pgw.ipv4.ip packetDropHopLimitReached:count 0
scalar MultiCell_withSecondaryGnb.pgw.ipv4.ip packetDropHopLimitReached:sum(packetBytes) 0
scalar MultiCell_withSecondaryGnb.pgw.ipv4.ip packetDropForwardingDisabled:count 0
scalar MultiCell_withSecondaryGnb.pgw.ipv4.ip packetDropForwardingDisabled:sum(packetBytes) 0
scalar MultiCell_withSecondaryGnb.pgw.ipv4.ip packetDropNoInterfaceFound:count 0
scalar MultiCell_withSecondaryGnb.pgw.ipv4.ip packetDropNoInterfaceFound:sum(packetBytes) 0
scalar MultiCell_withSecondaryGnb.pgw.ipv4.ip packetDropNoRouteFound:count 0
scalar MultiCell_withSecondaryGnb.pgw.ipv4.ip packetDropNoRouteFound:sum(packetBytes) 0
scalar MultiCell_withSecondaryGnb.pgw.ipv4.ip packetDropUndefined:count 0
scalar MultiCell_withSecondaryGnb.pgw.ipv4.ip packetDropUndefined:sum(packetBytes) 0
scalar MultiCell_withSecondaryGnb.pgw.ipv4.arp arpResolutionFailed:count 0
scalar MultiCell_withSecondaryGnb.pgw.ipv4.arp arpResolutionCompleted:count 0
scalar MultiCell_withSecondaryGnb.pgw.ipv4.arp arpResolutionInitiated:count 0
scalar MultiCell_withSecondaryGnb.pgw.ipv4.arp arpReplySent:count 0
scalar MultiCell_withSecondaryGnb.pgw.ipv4.arp arpReplySent:sum(packetBytes) 0
scalar MultiCell_withSecondaryGnb.pgw.ipv4.arp arpRequestSent:count 0
scalar MultiCell_withSecondaryGnb.pgw.ipv4.arp arpRequestSent:sum(packetBytes) 0
scalar MultiCell_withSecondaryGnb.pgw.pppIf.queue queueLength:last 0
scalar MultiCell_withSecondaryGnb.pgw.pppIf.queue queueLength:max 0
scalar MultiCell_withSecondaryGnb.pgw.pppIf.queue queueLength:timeavg 0
scalar MultiCell_withSecondaryGnb.pgw.pppIf.queue queueBitLength:last 0
scalar MultiCell_withSecondaryGnb.pgw.pppIf.queue queueBitLength:max 0
scalar MultiCell_withSecondaryGnb.pgw.pppIf.queue queueBitLength:timeavg 0
scalar MultiCell_withSecondaryGnb.pgw.pppIf.queue outgoingPackets:count 1556
scalar MultiCell_withSecondaryGnb.pgw.pppIf.queue outgoingPacketLengths:sum 12796544
scalar MultiCell_withSecondaryGnb.pgw.pppIf.queue incomingPackets:count 1556
scalar MultiCell_withSecondaryGnb.pgw.pppIf.queue incomingPacketLengths:sum 12796544
scalar MultiCell_withSecondaryGnb.pgw.pppIf.queue droppedPacketsQueueOverflow:count 0
scalar MultiCell_withSecondaryGnb.pgw.pppIf.queue droppedPacketLengthsQueueOverflow:sum 0
scalar MultiCell_withSecondaryGnb.pgw.pppIf.ppp transmissionState:timeavg 3.307069306161818e-05
scalar MultiCell_withSecondaryGnb.pgw.pppIf.ppp rxPkOk:count 0
scalar MultiCell_withSecondaryGnb.pgw.pppIf.ppp rxPkOk:sum(packetBytes) 0
scalar MultiCell_withSecondaryGnb.pgw.pppIf.ppp txPk:count 1556
scalar MultiCell_withSecondaryGnb.pgw.pppIf.ppp txPk:sum(packetBytes) 1610460
scalar MultiCell_withSecondaryGnb.pgw.pppIf.ppp rcvdPkFromHl:count 1556
scalar MultiCell_withSecondaryGnb.pgw.pppIf.ppp rcvdPkFromHl:sum(packetBytes) 1599568
scalar MultiCell_withSecondaryGnb.pgw.pppIf.ppp passedUpPk:count 0
scalar MultiCell_withSecondaryGnb.pgw.pppIf.ppp passedUpPk:sum(packetBytes) 0
scalar MultiCell_withSecondaryGnb.pgw.pppIf.ppp packetDropIncorrectlyReceived:count 0
scalar MultiCell_withSecondaryGnb.pgw.pppIf.ppp packetDropIncorrectlyReceived:sum(packetBytes) 0
scalar MultiCell_withSecondaryGnb.pgw.pppIf.ppp packetDropInterfaceDown:count 0
scalar MultiCell_withSecondaryGnb.pgw.pppIf.ppp packetDropInterfaceDown:sum(packetBytes) 0
scalar MultiCell_withSecondaryGnb.pgw.pppIf packetDropInterfaceDown:count 0
scalar MultiCell_withSecondaryGnb.pgw.pppIf packetDropInterfaceDown:sum(packetBytes) 0
scalar MultiCell_withSecondaryGnb.pgw.pppIf packetDropNoCarrier:count 0
scalar MultiCell_withSecondaryGnb.pgw.pppIf packetDropNoCarrier:sum(packetBytes) 0
scalar MultiCell_withSecondaryGnb.pgw.udp packetReceived:count 1556
scalar MultiCell_withSecondaryGnb.pgw.udp packetReceived:sum(packetBytes) 1624464
scalar MultiCell_withSecondaryGnb.pgw.udp packetSent:count 0
scalar MultiCell_withSecondaryGnb.pgw.udp packetSent:sum(packetBytes) 0
scalar MultiCell_withSecondaryGnb.pgw.udp passedUpPk:count 1556
scalar MultiCell_withSecondaryGnb.pgw.udp droppedPkWrongPort:count 0
scalar MultiCell_withSecondaryGnb.pgw.udp droppedPkBadChecksum:count 0
scalar MultiCell_withSecondaryGnb.masterEnb1.cellularNic.pdcp sentPacketToLowerLayer:count 0
scalar MultiCell_withSecondaryGnb.masterEnb1.cellularNic.pdcp sentPacketToLowerLayer:sum(packetBytes) 0
scalar MultiCell_withSecondaryGnb.masterEnb1.cellularNic.pdcp sentPacketToUpperLayer:count 640
scalar MultiCell_withSecondaryGnb.masterEnb1.cellularNic.pdcp sentPacketToUpperLayer:sum(packetBytes) 657920
scalar MultiCell_withSecondaryGnb.masterEnb1.cellularNic.pdcp receivedPacketFromLowerLayer:count 640
scalar MultiCell_withSecondaryGnb.masterEnb1.cellularNic.pdcp receivedPacketFromLowerLayer:sum(packetBytes) 658560
scalar MultiCell_withSecondaryGnb.masterEnb1.cellularNic.pdcp receivedPacketFromUpperLayer:count 0
scalar MultiCell_withSecondaryGnb.masterEnb1.cellularNic.pdcp receivedPacketFromUpperLayer:sum(packetBytes) 0
scalar MultiCell_withSecondaryGnb.masterEnb1.cellularNic.rlc.tm rlcPacketLossUl:mean -nan
scalar MultiCell_withSecondaryGnb.masterEnb1.cellularNic.rlc.tm rlcPacketLossUl:sum 0
scalar MultiCell_withSecondaryGnb.masterEnb1.cellularNic.rlc.tm rlcPacketLossDl:mean -nan
scalar MultiCell_withSecondaryGnb.masterEnb1.cellularNic.rlc.tm rlcPacketLossDl:sum 0
scalar MultiCell_withSecondaryGnb.masterEnb1.cellularNic.rlc.tm sentPacketToLowerLayer:count 0
scalar MultiCell_withSecondaryGnb.masterEnb1.cellularNic.rlc.tm sentPacketToLowerLayer:sum(packetBytes) 0
scalar MultiCell_withSecondaryGnb.masterEnb1.cellularNic.rlc.tm sentPacketToUpperLayer:count 0
scalar MultiCell_withSecondaryGnb.masterEnb1.cellularNic.rlc.tm sentPacketToUpperLayer:sum(packetBytes) 0
scalar MultiCell_withSecondaryGnb.masterEnb1.cellularNic.rlc.tm receivedPacketFromLowerLayer:count 0
scalar MultiCell_withSecondaryGnb.masterEnb1.cellularNic.rlc.tm receivedPacketFromLowerLayer:sum(packetBytes) 0
scalar MultiCell_withSecondaryGnb.masterEnb1.cellularNic.rlc.tm receivedPacketFromUpperLayer:count 0
scalar MultiCell_withSecondaryGnb.masterEnb1.cellularNic.rlc.tm receivedPacketFromUpperLayer:sum(packetBytes) 0
scalar MultiCell_withSecondaryGnb.masterEnb1.cellularNic.rlc.um rlcCellThroughputD2D:simu5g_rateavg -nan
scalar MultiCell_withSecondaryGnb.masterEnb1.cellularNic.rlc.um rlcPduThroughputD2D:simu5g_rateavg -nan
scalar MultiCell_withSecondaryGnb.masterEnb1.cellularNic.rlc.um rlcPduDelayD2D:mean -nan
scalar MultiCell_withSecondaryGnb.masterEnb1.cellularNic.rlc.um rlcThroughputD2D:simu5g_rateavg -nan
scalar MultiCell_withSecondaryGnb.masterEnb1.cellularNic.rlc.um rlcDelayD2D:mean -nan
scalar MultiCell_withSecondaryGnb.masterEnb1.cellularNic.rlc.um rlcCellThroughputUl:simu5g_rateavg 110797.50071522211
scalar MultiCell_withSecondaryGnb.masterEnb1.cellularNic.rlc.um rlcCellThroughputDl:simu5g_rateavg -nan
scalar MultiCell_withSecondaryGnb.masterEnb1.cellularNic.rlc.um rlcPduThroughputUl:simu5g_rateavg -nan
scalar MultiCell_withSecondaryGnb.masterEnb1.cellularNic.rlc.um rlcPduThroughputDl:simu5g_rateavg -nan
scalar MultiCell_withSecondaryGnb.masterEnb1.cellularNic.rlc.um rlcPduDelayUl:mean -nan
scalar MultiCell_withSecondaryGnb.masterEnb1.cellularNic.rlc.um rlcPduDelayDl:mean -nan
scalar MultiCell_withSecondaryGnb.masterEnb1.cellularNic.rlc.um rlcThroughputUl:simu5g_rateavg -nan
scalar MultiCell_withSecondaryGnb.masterEnb1.cellularNic.rlc.um rlcThroughputDl:simu5g_rateavg -nan
scalar MultiCell_withSecondaryGnb.masterEnb1.cellularNic.rlc.um rlcDelayUl:mean -nan
scalar MultiCell_withSecondaryGnb.masterEnb1.cellularNic.rlc.um rlcDelayDl:mean -nan
scalar MultiCell_withSecondaryGnb.masterEnb1.cellularNic.rlc.um sentPacketToLowerLayer:count 0
scalar MultiCell_withSecondaryGnb.masterEnb1.cellularNic.rlc.um sentPacketToLowerLayer:sum(packetBytes) 0
scalar MultiCell_withSecondaryGnb.masterEnb1.cellularNic.rlc.um sentPacketToUpperLayer:count 320
scalar MultiCell_withSecondaryGnb.masterEnb1.cellularNic.rlc.um sentPacketToUpperLayer:sum(packetBytes) 329280
scalar MultiCell_withSecondaryGnb.masterEnb1.cellularNic.rlc.um receivedPacketFromLowerLayer:count 640
scalar MultiCell_withSecondaryGnb.masterEnb1.cellularNic.rlc.um receivedPacketFromLowerLayer:sum(packetBytes) 330560
scalar MultiCell_withSecondaryGnb.masterEnb1.cellularNic.rlc.um receivedPacketFromUpperLayer:count 0
scalar MultiCell_withSecondaryGnb.masterEnb1.cellularNic.rlc.um receivedPacketFromUpperLayer:sum(packetBytes) 0
scalar MultiCell_withSecondaryGnb.masterEnb1.cellularNic.rlc.am rlcPacketLossTotal:mean -nan
scalar MultiCell_withSecondaryGnb.masterEnb1.cellularNic.rlc.am rlcCellThroughputUl:simu5g_rateavg -nan
scalar MultiCell_withSecondaryGnb.masterEnb1.cellularNic.rlc.am rlcCellThroughputDl:simu5g_rateavg -nan
scalar MultiCell_withSecondaryGnb.masterEnb1.cellularNic.rlc.am rlcPduThroughputUl:simu5g_rateavg -nan
scalar MultiCell_withSecondaryGnb.masterEnb1.cellularNic.rlc.am rlcPduThroughputDl:simu5g_rateavg -nan
scalar MultiCell_withSecondaryGnb.masterEnb1.cellularNic.rlc.am rlcPduDelayUl:mean -nan
scalar MultiCell_withSecondaryGnb.masterEnb1.cellularNic.rlc.am rlcPduDelayDl:mean -nan
scalar MultiCell_withSecondaryGnb.masterEnb1.cellularNic.rlc.am rlcThroughputUl:simu5g_rateavg -nan
scalar MultiCell_withSecondaryGnb.masterEnb1.cellularNic.rlc.am rlcThroughputDl:simu5g_rateavg -nan
scalar MultiCell_withSecondaryGnb.masterEnb1.cellularNic.rlc.am rlcDelayUl:mean -nan
scalar MultiCell_withSecondaryGnb.masterEnb1.cellularNic.rlc.am rlcDelayDl:mean -nan
scalar MultiCell_withSecondaryGnb.masterEnb1.cellularNic.rlc.am rlcPduPacketLossUl:mean -nan
scalar MultiCell_withSecondaryGnb.masterEnb1.cellularNic.rlc.am rlcPduPacketLossDl:mean -nan
scalar MultiCell_withSecondaryGnb.masterEnb1.cellularNic.rlc.am rlcPacketLossUl:mean -nan
scalar MultiCell_withSecondaryGnb.masterEnb1.cellularNic.rlc.am rlcPacketLossDl:mean -nan
scalar MultiCell_withSecondaryGnb.masterEnb1.cellularNic.rlc.am rlcCellPacketLossUl:mean -nan
scalar MultiCell_withSecondaryGnb.masterEnb1.cellularNic.rlc.am rlcCellPacketLossDl:mean -nan
scalar MultiCell_withSecondaryGnb.masterEnb1.cellularNic.mac avgServedBlocksUl:mean 0.098459013871439197
scalar MultiCell_withSecondaryGnb.masterEnb1.cellularNic.mac avgServedBlocksDl:mean 0
scalar MultiCell_withSecondaryGnb.masterEnb1.cellularNic.mac macCellPacketLossD2D:mean -nan
scalar MultiCell_withSecondaryGnb.masterEnb1.cellularNic.mac macCellThroughputD2D:simu5g_rateavg -nan
scalar MultiCell_withSecondaryGnb.masterEnb1.cellularNic.mac harqTxAttemptsUl:mean -nan
scalar MultiCell_withSecondaryGnb.masterEnb1.cellularNic.mac harqTxAttemptsDl:mean -nan
scalar MultiCell_withSecondaryGnb.masterEnb1.cellularNic.mac harqErrorRate_4th_Ul:mean -nan
scalar MultiCell_withSecondaryGnb.masterEnb1.cellularNic.mac harqErrorRate_4th_Dl:mean -nan
scalar MultiCell_withSecondaryGnb.masterEnb1.cellularNic.mac harqErrorRate_3rd_Ul:mean -nan
scalar MultiCell_withSecondaryGnb.masterEnb1.cellularNic.mac harqErrorRate_3rd_Dl:mean -nan
scalar MultiCell_withSecondaryGnb.masterEnb1.cellularNic.mac harqErrorRate_2nd_Ul:mean -nan
scalar MultiCell_withSecondaryGnb.masterEnb1.cellularNic.mac harqErrorRate_2nd_Dl:mean -nan
scalar MultiCell_withSecondaryGnb.masterEnb1.cellularNic.mac harqErrorRate_1st_Ul:mean -nan
scalar MultiCell_withSecondaryGnb.masterEnb1.cellularNic.mac harqErrorRate_1st_Dl:mean -nan
scalar MultiCell_withSecondaryGnb.masterEnb1.cellularNic.mac harqErrorRateUl:mean -nan
scalar MultiCell_withSecondaryGnb.masterEnb1.cellularNic.mac harqErrorRateDl:mean -nan
scalar MultiCell_withSecondaryGnb.masterEnb1.cellularNic.mac macCellPacketLossUl:mean 0
scalar MultiCell_withSecondaryGnb.masterEnb1.cellularNic.mac macCellPacketLossDl:mean -nan
scalar MultiCell_withSecondaryGnb.masterEnb1.cellularNic.mac macPacketLossUl:mean -nan
scalar MultiCell_withSecondaryGnb.masterEnb1.cellularNic.mac macPacketLossDl:mean -nan
scalar MultiCell_withSecondaryGnb.masterEnb1.cellularNic.mac macThroughputUl:simu5g_rateavg -nan
scalar MultiCell_withSecondaryGnb.masterEnb1.cellularNic.mac macThroughputDl:simu5g_rateavg -nan
scalar MultiCell_withSecondaryGnb.masterEnb1.cellularNic.mac macDelayUl:mean -nan
scalar MultiCell_withSecondaryGnb.masterEnb1.cellularNic.mac macDelayDl:mean -nan
scalar MultiCell_withSecondaryGnb.masterEnb1.cellularNic.mac macCellThroughputUl:simu5g_rateavg 117665.25756689878
scalar MultiCell_withSecondaryGnb.masterEnb1.cellularNic.mac macCellThroughputDl:simu5g_rateavg -nan
scalar MultiCell_withSecondaryGnb.masterEnb1.cellularNic.mac sentPacketToLowerLayer:count 1600
scalar MultiCell_withSecondaryGnb.masterEnb1.cellularNic.mac sentPacketToLowerLayer:sum(packetBytes) 1600
scalar MultiCell_withSecondaryGnb.masterEnb1.cellularNic.mac sentPacketToUpperLayer:count 640
scalar MultiCell_withSecondaryGnb.masterEnb1.cellularNic.mac sentPacketToUpperLayer:sum(packetBytes) 330560
scalar MultiCell_withSecondaryGnb.masterEnb1.cellularNic.mac receivedPacketFromLowerLayer:count 3639
scalar MultiCell_withSecondaryGnb.masterEnb1.cellularNic.mac receivedPacketFromLowerLayer:sum(packetBytes) 334839
scalar MultiCell_withSecondaryGnb.masterEnb1.cellularNic.mac receivedPacketFromUpperLayer:count 0
scalar MultiCell_withSecondaryGnb.masterEnb1.cellularNic.mac receivedPacketFromUpperLayer:sum(packetBytes) 0
scalar MultiCell_withSecondaryGnb.masterEnb1.cellularNic.mac macBufferOverFlowD2D:mean -nan
scalar MultiCell_withSecondaryGnb.masterEnb1.cellularNic.mac macBufferOverFlowUl:mean -nan
scalar MultiCell_withSecondaryGnb.masterEnb1.cellularNic.mac macBufferOverFlowDl:mean -nan
scalar MultiCell_withSecondaryGnb.masterEnb1.cellularNic.channelModel[0] measuredSinrUl:mean -nan
scalar MultiCell_withSecondaryGnb.masterEnb1.cellularNic.channelModel[0] measuredSinrDl:mean -nan
scalar MultiCell_withSecondaryGnb.masterEnb1.cellularNic.channelModel[0] rcvdSinrD2D:mean -nan
scalar MultiCell_withSecondaryGnb.masterEnb1.cellularNic.channelModel[0] rcvdSinrUl:mean -nan
scalar MultiCell_withSecondaryGnb.masterEnb1.cellularNic.channelModel[0] rcvdSinrDl:mean -nan
scalar MultiCell_withSecondaryGnb.masterEnb1.cellularNic packetDropInterfaceDown:count 0
scalar MultiCell_withSecondaryGnb.masterEnb1.cellularNic packetDropInterfaceDown:sum(packetBytes) 0
scalar MultiCell_withSecondaryGnb.masterEnb1.cellularNic packetDropNoCarrier:count 0
scalar MultiCell_withSecondaryGnb.masterEnb1.cellularNic packetDropNoCarrier:sum(packetBytes) 0
scalar MultiCell_withSecondaryGnb.masterEnb1.pppIf.queue queueLength:last 0
scalar MultiCell_withSecondaryGnb.masterEnb1.pppIf.queue queueLength:max 0
scalar MultiCell_withSecondaryGnb.masterEnb1.pppIf.queue queueLength:timeavg 0
scalar MultiCell_withSecondaryGnb.masterEnb1.pppIf.queue queueBitLength:last 0
scalar MultiCell_withSecondaryGnb.masterEnb1.pppIf.queue queueBitLength:max 0
scalar MultiCell_withSecondaryGnb.masterEnb1.pppIf.queue queueBitLength:timeavg 0
scalar MultiCell_withSecondaryGnb.masterEnb1.pppIf.queue outgoingPackets:count 640
scalar MultiCell_withSecondaryGnb.masterEnb1.pppIf.queue outgoingPacketLengths:sum 5447680
scalar MultiCell_withSecondaryGnb.masterEnb1.pppIf.queue incomingPackets:count 640
scalar MultiCell_withSecondaryGnb.masterEnb1.pppIf.queue incomingPacketLengths:sum 5447680
scalar MultiCell_withSecondaryGnb.masterEnb1.pppIf.queue droppedPacketsQueueOverflow:count 0
scalar MultiCell_withSecondaryGnb.masterEnb1.pppIf.queue droppedPacketLengthsQueueOverflow:sum 0
scalar MultiCell_withSecondaryGnb.masterEnb1.pppIf.ppp transmissionState:timeavg 1.4075466217432917e-05
scalar MultiCell_withSecondaryGnb.masterEnb1.pppIf.ppp rxPkOk:count 0
scalar MultiCell_withSecondaryGnb.masterEnb1.pppIf.ppp rxPkOk:sum(packetBytes) 0
scalar MultiCell_withSecondaryGnb.masterEnb1.pppIf.ppp txPk:count 640
scalar MultiCell_withSecondaryGnb.masterEnb1.pppIf.ppp txPk:sum(packetBytes) 685440
scalar MultiCell_withSecondaryGnb.masterEnb1.pppIf.ppp rcvdPkFromHl:count 640
scalar MultiCell_withSecondaryGnb.masterEnb1.pppIf.ppp rcvdPkFromHl:sum(packetBytes) 680960
scalar MultiCell_withSecondaryGnb.masterEnb1.pppIf.ppp passedUpPk:count 0
scalar MultiCell_withSecondaryGnb.masterEnb1.pppIf.ppp passedUpPk:sum(packetBytes) 0
scalar MultiCell_withSecondaryGnb.masterEnb1.pppIf.ppp packetDropIncorrectlyReceived:count 0
scalar MultiCell_withSecondaryGnb.masterEnb1.pppIf.ppp packetDropIncorrectlyReceived:sum(packetBytes) 0
scalar MultiCell_withSecondaryGnb.masterEnb1.pppIf.ppp packetDropInterfaceDown:count 0
scalar MultiCell_withSecondaryGnb.masterEnb1.pppIf.ppp packetDropInterfaceDown:sum(packetBytes) 0
scalar MultiCell_withSecondaryGnb.masterEnb1.pppIf packetDropInterfaceDown:count 0
scalar MultiCell_withSecondaryGnb.masterEnb1.pppIf packetDropInterfaceDown:sum(packetBytes) 0
scalar MultiCell_withSecondaryGnb.masterEnb1.pppIf packetDropNoCarrier:count 0
scalar MultiCell_withSecondaryGnb.masterEnb1.pppIf packetDropNoCarrier:sum(packetBytes) 0
scalar MultiCell_withSecondaryGnb.masterEnb1.x2ppp[0].queue queueLength:last 0
scalar MultiCell_withSecondaryGnb.masterEnb1.x2ppp[0].queue queueLength:max 0
scalar MultiCell_withSecondaryGnb.masterEnb1.x2ppp[0].queue queueLength:timeavg 0
scalar MultiCell_withSecondaryGnb.masterEnb1.x2ppp[0].queue queueBitLength:last 0
scalar MultiCell_withSecondaryGnb.masterEnb1.x2ppp[0].queue queueBitLength:max 0
scalar MultiCell_withSecondaryGnb.masterEnb1.x2ppp[0].queue queueBitLength:timeavg 0
scalar MultiCell_withSecondaryGnb.masterEnb1.x2ppp[0].queue outgoingPackets:count 0
scalar MultiCell_withSecondaryGnb.masterEnb1.x2ppp[0].queue outgoingPacketLengths:sum 0
scalar MultiCell_withSecondaryGnb.masterEnb1.x2ppp[0].queue incomingPackets:count 0
scalar MultiCell_withSecondaryGnb.masterEnb1.x2ppp[0].queue incomingPacketLengths:sum 0
scalar MultiCell_withSecondaryGnb.masterEnb1.x2ppp[0].queue droppedPacketsQueueOverflow:count 0
scalar MultiCell_withSecondaryGnb.masterEnb1.x2ppp[0].queue droppedPacketLengthsQueueOverflow:sum 0
scalar MultiCell_withSecondaryGnb.masterEnb1.x2ppp[0].ppp transmissionState:timeavg -nan
scalar MultiCell_withSecondaryGnb.masterEnb1.x2ppp[0].ppp rxPkOk:count 320
scalar MultiCell_withSecondaryGnb.masterEnb1.x2ppp[0].ppp rxPkOk:sum(packetBytes) 346560
scalar MultiCell_withSecondaryGnb.masterEnb1.x2ppp[0].ppp txPk:count 0
scalar MultiCell_withSecondaryGnb.masterEnb1.x2ppp[0].ppp txPk:sum(packetBytes) 0
scalar MultiCell_withSecondaryGnb.masterEnb1.x2ppp[0].ppp rcvdPkFromHl:count 0
scalar MultiCell_withSecondaryGnb.masterEnb1.x2ppp[0].ppp rcvdPkFromHl:sum(packetBytes) 0
scalar MultiCell_withSecondaryGnb.masterEnb1.x2ppp[0].ppp passedUpPk:count 320
scalar MultiCell_withSecondaryGnb.masterEnb1.x2ppp[0].ppp passedUpPk:sum(packetBytes) 344320
scalar MultiCell_withSecondaryGnb.masterEnb1.x2ppp[0].ppp packetDropIncorrectlyReceived:count 0
scalar MultiCell_withSecondaryGnb.masterEnb1.x2ppp[0].ppp packetDropIncorrectlyReceived:sum(packetBytes) 0
scalar MultiCell_withSecondaryGnb.masterEnb1.x2ppp[0].ppp packetDropInterfaceDown:count 0
scalar MultiCell_withSecondaryGnb.masterEnb1.x2ppp[0].ppp packetDropInterfaceDown:sum(packetBytes) 0
scalar MultiCell_withSecondaryGnb.masterEnb1.x2ppp[0] packetDropInterfaceDown:count 0
scalar MultiCell_withSecondaryGnb.masterEnb1.x2ppp[0] packetDropInterfaceDown:sum(packetBytes) 0
scalar MultiCell_withSecondaryGnb.masterEnb1.x2ppp[0] packetDropNoCarrier:count 0
scalar MultiCell_withSecondaryGnb.masterEnb1.x2ppp[0] packetDropNoCarrier:sum(packetBytes) 0
scalar MultiCell_withSecondaryGnb.masterEnb1.x2ppp[1].queue queueLength:last 0
scalar MultiCell_withSecondaryGnb.masterEnb1.x2ppp[1].queue queueLength:max 0
scalar MultiCell_withSecondaryGnb.masterEnb1.x2ppp[1].queue queueLength:timeavg 0
scalar MultiCell_withSecondaryGnb.masterEnb1.x2ppp[1].queue queueBitLength:last 0
scalar MultiCell_withSecondaryGnb.masterEnb1.x2ppp[1].queue queueBitLength:max 0
scalar MultiCell_withSecondaryGnb.masterEnb1.x2ppp[1].queue queueBitLength:timeavg 0
scalar MultiCell_withSecondaryGnb.masterEnb1.x2ppp[1].queue outgoingPackets:count 1
scalar MultiCell_withSecondaryGnb.masterEnb1.x2ppp[1].queue outgoingPacketLengths:sum 512
scalar MultiCell_withSecondaryGnb.masterEnb1.x2ppp[1].queue incomingPackets:count 1
scalar MultiCell_withSecondaryGnb.masterEnb1.x2ppp[1].queue incomingPacketLengths:sum 512
scalar MultiCell_withSecondaryGnb.masterEnb1.x2ppp[1].queue droppedPacketsQueueOverflow:count 0
scalar MultiCell_withSecondaryGnb.masterEnb1.x2ppp[1].queue droppedPacketLengthsQueueOverflow:sum 0
scalar MultiCell_withSecondaryGnb.masterEnb1.x2ppp[1].ppp transmissionState:timeavg 2.4722546004392604e-09
scalar MultiCell_withSecondaryGnb.masterEnb1.x2ppp[1].ppp rxPkOk:count 1
scalar MultiCell_withSecondaryGnb.masterEnb1.x2ppp[1].ppp rxPkOk:sum(packetBytes) 55
scalar MultiCell_withSecondaryGnb.masterEnb1.x2ppp[1].ppp txPk:count 1
scalar MultiCell_withSecondaryGnb.masterEnb1.x2ppp[1].ppp txPk:sum(packetBytes) 71
scalar MultiCell_withSecondaryGnb.masterEnb1.x2ppp[1].ppp rcvdPkFromHl:count 1
scalar MultiCell_withSecondaryGnb.masterEnb1.x2ppp[1].ppp rcvdPkFromHl:sum(packetBytes) 64
scalar MultiCell_withSecondaryGnb.masterEnb1.x2ppp[1].ppp passedUpPk:count 1
scalar MultiCell_withSecondaryGnb.masterEnb1.x2ppp[1].ppp passedUpPk:sum(packetBytes) 48
scalar MultiCell_withSecondaryGnb.masterEnb1.x2ppp[1].ppp packetDropIncorrectlyReceived:count 0
scalar MultiCell_withSecondaryGnb.masterEnb1.x2ppp[1].ppp packetDropIncorrectlyReceived:sum(packetBytes) 0
scalar MultiCell_withSecondaryGnb.masterEnb1.x2ppp[1].ppp packetDropInterfaceDown:count 0
scalar MultiCell_withSecondaryGnb.masterEnb1.x2ppp[1].ppp packetDropInterfaceDown:sum(packetBytes) 0
scalar MultiCell_withSecondaryGnb.masterEnb1.x2ppp[1] packetDropInterfaceDown:count 0
scalar MultiCell_withSecondaryGnb.masterEnb1.x2ppp[1] packetDropInterfaceDown:sum(packetBytes) 0
scalar MultiCell_withSecondaryGnb.masterEnb1.x2ppp[1] packetDropNoCarrier:count 0
scalar MultiCell_withSecondaryGnb.masterEnb1.x2ppp[1] packetDropNoCarrier:sum(packetBytes) 0
scalar MultiCell_withSecondaryGnb.masterEnb1.pppMEHostIf.queue queueLength:last 0
scalar MultiCell_withSecondaryGnb.masterEnb1.pppMEHostIf.queue queueLength:max 0
scalar MultiCell_withSecondaryGnb.masterEnb1.pppMEHostIf.queue queueLength:timeavg 0
scalar MultiCell_withSecondaryGnb.masterEnb1.pppMEHostIf.queue queueBitLength:last 0
scalar MultiCell_withSecondaryGnb.masterEnb1.pppMEHostIf.queue queueBitLength:max 0
scalar MultiCell_withSecondaryGnb.masterEnb1.pppMEHostIf.queue queueBitLength:timeavg 0
scalar MultiCell_withSecondaryGnb.masterEnb1.pppMEHostIf.queue outgoingPackets:count 0
scalar MultiCell_withSecondaryGnb.masterEnb1.pppMEHostIf.queue outgoingPacketLengths:sum 0
scalar MultiCell_withSecondaryGnb.masterEnb1.pppMEHostIf.queue incomingPackets:count 0
scalar MultiCell_withSecondaryGnb.masterEnb1.pppMEHostIf.queue incomingPacketLengths:sum 0
scalar MultiCell_withSecondaryGnb.masterEnb1.pppMEHostIf.queue droppedPacketsQueueOverflow:count 0
scalar MultiCell_withSecondaryGnb.masterEnb1.pppMEHostIf.queue droppedPacketLengthsQueueOverflow:sum 0
scalar MultiCell_withSecondaryGnb.masterEnb1.pppMEHostIf.ppp transmissionState:timeavg -nan
scalar MultiCell_withSecondaryGnb.masterEnb1.pppMEHostIf.ppp rxPkOk:count 0
scalar MultiCell_withSecondaryGnb.masterEnb1.pppMEHostIf.ppp rxPkOk:sum(packetBytes) 0
scalar MultiCell_withSecondaryGnb.masterEnb1.pppMEHostIf.ppp txPk:count 0
scalar MultiCell_withSecondaryGnb.masterEnb1.pppMEHostIf.ppp txPk:sum(packetBytes) 0
scalar MultiCell_withSecondaryGnb.masterEnb1.pppMEHostIf.ppp rcvdPkFromHl:count 0
scalar MultiCell_withSecondaryGnb.masterEnb1.pppMEHostIf.ppp rcvdPkFromHl:sum(packetBytes) 0
scalar MultiCell_withSecondaryGnb.masterEnb1.pppMEHostIf.ppp passedUpPk:count 0
scalar MultiCell_withSecondaryGnb.masterEnb1.pppMEHostIf.ppp passedUpPk:sum(packetBytes) 0
scalar MultiCell_withSecondaryGnb.masterEnb1.pppMEHostIf.ppp packetDropIncorrectlyReceived:count 0
scalar MultiCell_withSecondaryGnb.masterEnb1.pppMEHostIf.ppp packetDropIncorrectlyReceived:sum(packetBytes) 0
scalar MultiCell_withSecondaryGnb.masterEnb1.pppMEHostIf.ppp packetDropInterfaceDown:count 0
scalar MultiCell_withSecondaryGnb.masterEnb1.pppMEHostIf.ppp packetDropInterfaceDown:sum(packetBytes) 0
scalar MultiCell_withSecondaryGnb.masterEnb1.pppMEHostIf packetDropInterfaceDown:count 0
scalar MultiCell_withSecondaryGnb.masterEnb1.pppMEHostIf packetDropInterfaceDown:sum(packetBytes) 0
scalar MultiCell_withSecondaryGnb.masterEnb1.pppMEHostIf packetDropNoCarrier:count 0
scalar MultiCell_withSecondaryGnb.masterEnb1.pppMEHostIf packetDropNoCarrier:sum(packetBytes) 0
scalar MultiCell_withSecondaryGnb.masterEnb1.ipv4.ip packetDropAddressResolutionFailed:count 0
scalar MultiCell_withSecondaryGnb.masterEnb1.ipv4.ip packetDropAddressResolutionFailed:sum(packetBytes) 0
scalar MultiCell_withSecondaryGnb.masterEnb1.ipv4.ip packetDropHopLimitReached:count 0
scalar MultiCell_withSecondaryGnb.masterEnb1.ipv4.ip packetDropHopLimitReached:sum(packetBytes) 0
scalar MultiCell_withSecondaryGnb.masterEnb1.ipv4.ip packetDropForwardingDisabled:count 0
scalar MultiCell_withSecondaryGnb.masterEnb1.ipv4.ip packetDropForwardingDisabled:sum(packetBytes) 0
scalar MultiCell_withSecondaryGnb.masterEnb1.ipv4.ip packetDropNoInterfaceFound:count 0
scalar MultiCell_withSecondaryGnb.masterEnb1.ipv4.ip packetDropNoInterfaceFound:sum(packetBytes) 0
scalar MultiCell_withSecondaryGnb.masterEnb1.ipv4.ip packetDropNoRouteFound:count 0
scalar MultiCell_withSecondaryGnb.masterEnb1.ipv4.ip packetDropNoRouteFound:sum(packetBytes) 0
scalar MultiCell_withSecondaryGnb.masterEnb1.ipv4.ip packetDropUndefined:count 0
scalar MultiCell_withSecondaryGnb.masterEnb1.ipv4.ip packetDropUndefined:sum(packetBytes) 0
scalar MultiCell_withSecondaryGnb.masterEnb1.ipv4.arp arpResolutionFailed:count 0
scalar MultiCell_withSecondaryGnb.masterEnb1.ipv4.arp arpResolutionCompleted:count 0
scalar MultiCell_withSecondaryGnb.masterEnb1.ipv4.arp arpResolutionInitiated:count 0
scalar MultiCell_withSecondaryGnb.masterEnb1.ipv4.arp arpReplySent:count 0
scalar MultiCell_withSecondaryGnb.masterEnb1.ipv4.arp arpReplySent:sum(packetBytes) 0
scalar MultiCell_withSecondaryGnb.masterEnb1.ipv4.arp arpRequestSent:count 0
scalar MultiCell_withSecondaryGnb.masterEnb1.ipv4.arp arpRequestSent:sum(packetBytes) 0
scalar MultiCell_withSecondaryGnb.masterEnb1.udp packetReceived:count 320
scalar MultiCell_withSecondaryGnb.masterEnb1.udp packetReceived:sum(packetBytes) 337920
scalar MultiCell_withSecondaryGnb.masterEnb1.udp packetSent:count 640
scalar MultiCell_withSecondaryGnb.masterEnb1.udp packetSent:sum(packetBytes) 668160
scalar MultiCell_withSecondaryGnb.masterEnb1.udp passedUpPk:count 320
scalar MultiCell_withSecondaryGnb.masterEnb1.udp droppedPkWrongPort:count 0
scalar MultiCell_withSecondaryGnb.masterEnb1.udp droppedPkBadChecksum:count 0
scalar MultiCell_withSecondaryGnb.masterEnb1.x2App[0].client packetReceived:count 0
scalar MultiCell_withSecondaryGnb.masterEnb1.x2App[0].client packetReceived:sum(packetBytes) 0
scalar MultiCell_withSecondaryGnb.masterEnb1.x2App[0].client packetSent:count 0
scalar MultiCell_withSecondaryGnb.masterEnb1.x2App[0].client packetSent:sum(packetBytes) 0
scalar MultiCell_withSecondaryGnb.masterEnb1.x2App[0].client echoedPk:count 0
scalar MultiCell_withSecondaryGnb.masterEnb1.x2App[0].client echoedPk:sum(packetBytes) 0
scalar MultiCell_withSecondaryGnb.masterEnb1.x2App[0].server "bytes rcvd" 0
scalar MultiCell_withSecondaryGnb.masterEnb1.x2App[0].server throughput -nan
scalar MultiCell_withSecondaryGnb.masterEnb1.x2App[1].client packetReceived:count 0
scalar MultiCell_withSecondaryGnb.masterEnb1.x2App[1].client packetReceived:sum(packetBytes) 0
scalar MultiCell_withSecondaryGnb.masterEnb1.x2App[1].client packetSent:count 0
scalar MultiCell_withSecondaryGnb.masterEnb1.x2App[1].client packetSent:sum(packetBytes) 0
scalar MultiCell_withSecondaryGnb.masterEnb1.x2App[1].client echoedPk:count 0
scalar MultiCell_withSecondaryGnb.masterEnb1.x2App[1].client echoedPk:sum(packetBytes) 0
scalar MultiCell_withSecondaryGnb.masterEnb1.x2App[1].server "bytes rcvd" 0
scalar MultiCell_withSecondaryGnb.masterEnb1.x2App[1].server throughput -nan
scalar MultiCell_withSecondaryGnb.secondaryGnb1.cellularNic.pdcp sentPacketToLowerLayer:count 0
scalar MultiCell_withSecondaryGnb.secondaryGnb1.cellularNic.pdcp sentPacketToLowerLayer:sum(packetBytes) 0
scalar MultiCell_withSecondaryGnb.secondaryGnb1.cellularNic.pdcp sentPacketToUpperLayer:count 0
scalar MultiCell_withSecondaryGnb.secondaryGnb1.cellularNic.pdcp sentPacketToUpperLayer:sum(packetBytes) 0
scalar MultiCell_withSecondaryGnb.secondaryGnb1.cellularNic.pdcp receivedPacketFromLowerLayer:count 0
scalar MultiCell_withSecondaryGnb.secondaryGnb1.cellularNic.pdcp receivedPacketFromLowerLayer:sum(packetBytes) 0
scalar MultiCell_withSecondaryGnb.secondaryGnb1.cellularNic.pdcp receivedPacketFromUpperLayer:count 0
scalar MultiCell_withSecondaryGnb.secondaryGnb1.cellularNic.pdcp receivedPacketFromUpperLayer:sum(packetBytes) 0
scalar MultiCell_withSecondaryGnb.secondaryGnb1.cellularNic.rlc.tm rlcPacketLossUl:mean -nan
scalar MultiCell_withSecondaryGnb.secondaryGnb1.cellularNic.rlc.tm rlcPacketLossUl:sum 0
scalar MultiCell_withSecondaryGnb.secondaryGnb1.cellularNic.rlc.tm rlcPacketLossDl:mean -nan
scalar MultiCell_withSecondaryGnb.secondaryGnb1.cellularNic.rlc.tm rlcPacketLossDl:sum 0
scalar MultiCell_withSecondaryGnb.secondaryGnb1.cellularNic.rlc.tm sentPacketToLowerLayer:count 0
scalar MultiCell_withSecondaryGnb.secondaryGnb1.cellularNic.rlc.tm sentPacketToLowerLayer:sum(packetBytes) 0
scalar MultiCell_withSecondaryGnb.secondaryGnb1.cellularNic.rlc.tm sentPacketToUpperLayer:count 0
scalar MultiCell_withSecondaryGnb.secondaryGnb1.cellularNic.rlc.tm sentPacketToUpperLayer:sum(packetBytes) 0
scalar MultiCell_withSecondaryGnb.secondaryGnb1.cellularNic.rlc.tm receivedPacketFromLowerLayer:count 0
scalar MultiCell_withSecondaryGnb.secondaryGnb1.cellularNic.rlc.tm receivedPacketFromLowerLayer:sum(packetBytes) 0
scalar MultiCell_withSecondaryGnb.secondaryGnb1.cellularNic.rlc.tm receivedPacketFromUpperLayer:count 0
scalar MultiCell_withSecondaryGnb.secondaryGnb1.cellularNic.rlc.tm receivedPacketFromUpperLayer:sum(packetBytes) 0
scalar MultiCell_withSecondaryGnb.secondaryGnb1.cellularNic.rlc.um rlcCellThroughputD2D:simu5g_rateavg -nan
scalar MultiCell_withSecondaryGnb.secondaryGnb1.cellularNic.rlc.um rlcPduThroughputD2D:simu5g_rateavg -nan
scalar MultiCell_withSecondaryGnb.secondaryGnb1.cellularNic.rlc.um rlcPduDelayD2D:mean -nan
scalar MultiCell_withSecondaryGnb.secondaryGnb1.cellularNic.rlc.um rlcThroughputD2D:simu5g_rateavg -nan
scalar MultiCell_withSecondaryGnb.secondaryGnb1.cellularNic.rlc.um rlcDelayD2D:mean -nan
scalar MultiCell_withSecondaryGnb.secondaryGnb1.cellularNic.rlc.um rlcCellThroughputUl:simu5g_rateavg 113230.76317110741
scalar MultiCell_withSecondaryGnb.secondaryGnb1.cellularNic.rlc.um rlcCellThroughputDl:simu5g_rateavg -nan
scalar MultiCell_withSecondaryGnb.secondaryGnb1.cellularNic.rlc.um rlcPduThroughputUl:simu5g_rateavg -nan
scalar MultiCell_withSecondaryGnb.secondaryGnb1.cellularNic.rlc.um rlcPduThroughputDl:simu5g_rateavg -nan
scalar MultiCell_withSecondaryGnb.secondaryGnb1.cellularNic.rlc.um rlcPduDelayUl:mean -nan
scalar MultiCell_withSecondaryGnb.secondaryGnb1.cellularNic.rlc.um rlcPduDelayDl:mean -nan
scalar MultiCell_withSecondaryGnb.secondaryGnb1.cellularNic.rlc.um rlcThroughputUl:simu5g_rateavg -nan
scalar MultiCell_withSecondaryGnb.secondaryGnb1.cellularNic.rlc.um rlcThroughputDl:simu5g_rateavg -nan
scalar MultiCell_withSecondaryGnb.secondaryGnb1.cellularNic.rlc.um rlcDelayUl:mean -nan
scalar MultiCell_withSecondaryGnb.secondaryGnb1.cellularNic.rlc.um rlcDelayDl:mean -nan
scalar MultiCell_withSecondaryGnb.secondaryGnb1.cellularNic.rlc.um sentPacketToLowerLayer:count 0
scalar MultiCell_withSecondaryGnb.secondaryGnb1.cellularNic.rlc.um sentPacketToLowerLayer:sum(packetBytes) 0
scalar MultiCell_withSecondaryGnb.secondaryGnb1.cellularNic.rlc.um sentPacketToUpperLayer:count 320
scalar MultiCell_withSecondaryGnb.secondaryGnb1.cellularNic.rlc.um sentPacketToUpperLayer:sum(packetBytes) 329280
scalar MultiCell_withSecondaryGnb.secondaryGnb1.cellularNic.rlc.um receivedPacketFromLowerLayer:count 640
scalar MultiCell_withSecondaryGnb.secondaryGnb1.cellularNic.rlc.um receivedPacketFromLowerLayer:sum(packetBytes) 330560
scalar MultiCell_withSecondaryGnb.secondaryGnb1.cellularNic.rlc.um receivedPacketFromUpperLayer:count 0
scalar MultiCell_withSecondaryGnb.secondaryGnb1.cellularNic.rlc.um receivedPacketFromUpperLayer:sum(packetBytes) 0
scalar MultiCell_withSecondaryGnb.secondaryGnb1.cellularNic.rlc.am rlcPacketLossTotal:mean -nan
scalar MultiCell_withSecondaryGnb.secondaryGnb1.cellularNic.rlc.am rlcCellThroughputUl:simu5g_rateavg -nan
scalar MultiCell_withSecondaryGnb.secondaryGnb1.cellularNic.rlc.am rlcCellThroughputDl:simu5g_rateavg -nan
scalar MultiCell_withSecondaryGnb.secondaryGnb1.cellularNic.rlc.am rlcPduThroughputUl:simu5g_rateavg -nan
scalar MultiCell_withSecondaryGnb.secondaryGnb1.cellularNic.rlc.am rlcPduThroughputDl:simu5g_rateavg -nan
scalar MultiCell_withSecondaryGnb.secondaryGnb1.cellularNic.rlc.am rlcPduDelayUl:mean -nan
scalar MultiCell_withSecondaryGnb.secondaryGnb1.cellularNic.rlc.am rlcPduDelayDl:mean -nan
scalar MultiCell_withSecondaryGnb.secondaryGnb1.cellularNic.rlc.am rlcThroughputUl:simu5g_rateavg -nan
scalar MultiCell_withSecondaryGnb.secondaryGnb1.cellularNic.rlc.am rlcThroughputDl:simu5g_rateavg -nan
scalar MultiCell_withSecondaryGnb.secondaryGnb1.cellularNic.rlc.am rlcDelayUl:mean -nan
scalar MultiCell_withSecondaryGnb.secondaryGnb1.cellularNic.rlc.am rlcDelayDl:mean -nan
scalar MultiCell_withSecondaryGnb.secondaryGnb1.cellularNic.rlc.am rlcPduPacketLossUl:mean -nan
scalar MultiCell_withSecondaryGnb.secondaryGnb1.cellularNic.rlc.am rlcPduPacketLossDl:mean -nan
scalar MultiCell_withSecondaryGnb.secondaryGnb1.cellularNic.rlc.am rlcPacketLossUl:mean -nan
scalar MultiCell_withSecondaryGnb.secondaryGnb1.cellularNic.rlc.am rlcPacketLossDl:mean -nan
scalar MultiCell_withSecondaryGnb.secondaryGnb1.cellularNic.rlc.am rlcCellPacketLossUl:mean -nan
scalar MultiCell_withSecondaryGnb.secondaryGnb1.cellularNic.rlc.am rlcCellPacketLossDl:mean -nan
scalar MultiCell_withSecondaryGnb.secondaryGnb1.cellularNic.mac avgServedBlocksUl:mean 0.06617779031306889
scalar MultiCell_withSecondaryGnb.secondaryGnb1.cellularNic.mac avgServedBlocksDl:mean 0
scalar MultiCell_withSecondaryGnb.secondaryGnb1.cellularNic.mac macCellPacketLossD2D:mean -nan
scalar MultiCell_withSecondaryGnb.secondaryGnb1.cellularNic.mac macCellThroughputD2D:simu5g_rateavg -nan
scalar MultiCell_withSecondaryGnb.secondaryGnb1.cellularNic.mac harqTxAttemptsUl:mean -nan
scalar MultiCell_withSecondaryGnb.secondaryGnb1.cellularNic.mac harqTxAttemptsDl:mean -nan
scalar MultiCell_withSecondaryGnb.secondaryGnb1.cellularNic.mac harqErrorRate_4th_Ul:mean -nan
scalar MultiCell_withSecondaryGnb.secondaryGnb1.cellularNic.mac harqErrorRate_4th_Dl:mean -nan
scalar MultiCell_withSecondaryGnb.secondaryGnb1.cellularNic.mac harqErrorRate_3rd_Ul:mean -nan
scalar MultiCell_withSecondaryGnb.secondaryGnb1.cellularNic.mac harqErrorRate_3rd_Dl:mean -nan
scalar MultiCell_withSecondaryGnb.secondaryGnb1.cellularNic.mac harqErrorRate_2nd_Ul:mean -nan
scalar MultiCell_withSecondaryGnb.secondaryGnb1.cellularNic.mac harqErrorRate_2nd_Dl:mean -nan
scalar MultiCell_withSecondaryGnb.secondaryGnb1.cellularNic.mac harqErrorRate_1st_Ul:mean -nan
scalar MultiCell_withSecondaryGnb.secondaryGnb1.cellularNic.mac harqErrorRate_1st_Dl:mean -nan
scalar MultiCell_withSecondaryGnb.secondaryGnb1.cellularNic.mac harqErrorRateUl:mean -nan
scalar MultiCell_withSecondaryGnb.secondaryGnb1.cellularNic.mac harqErrorRateDl:mean -nan
scalar MultiCell_withSecondaryGnb.secondaryGnb1.cellularNic.mac macCellPacketLossUl:mean 0
scalar MultiCell_withSecondaryGnb.secondaryGnb1.cellularNic.mac macCellPacketLossDl:mean -nan
scalar MultiCell_withSecondaryGnb.secondaryGnb1.cellularNic.mac macPacketLossUl:mean -nan
scalar MultiCell_withSecondaryGnb.secondaryGnb1.cellularNic.mac macPacketLossDl:mean -nan
scalar MultiCell_withSecondaryGnb.secondaryGnb1.cellularNic.mac macThroughputUl:simu5g_rateavg -nan
scalar MultiCell_withSecondaryGnb.secondaryGnb1.cellularNic.mac macThroughputDl:simu5g_rateavg -nan
scalar MultiCell_withSecondaryGnb.secondaryGnb1.cellularNic.mac macDelayUl:mean -nan
scalar MultiCell_withSecondaryGnb.secondaryGnb1.cellularNic.mac macDelayDl:mean -nan
scalar MultiCell_withSecondaryGnb.secondaryGnb1.cellularNic.mac macCellThroughputUl:simu5g_rateavg 122953.76479831267
scalar MultiCell_withSecondaryGnb.secondaryGnb1.cellularNic.mac macCellThroughputDl:simu5g_rateavg -nan
scalar MultiCell_withSecondaryGnb.secondaryGnb1.cellularNic.mac sentPacketToLowerLayer:count 1606
scalar MultiCell_withSecondaryGnb.secondaryGnb1.cellularNic.mac sentPacketToLowerLayer:sum(packetBytes) 1606
scalar MultiCell_withSecondaryGnb.secondaryGnb1.cellularNic.mac sentPacketToUpperLayer:count 640
scalar MultiCell_withSecondaryGnb.secondaryGnb1.cellularNic.mac sentPacketToUpperLayer:sum(packetBytes) 330560
scalar MultiCell_withSecondaryGnb.secondaryGnb1.cellularNic.mac receivedPacketFromLowerLayer:count 3634
scalar MultiCell_withSecondaryGnb.secondaryGnb1.cellularNic.mac receivedPacketFromLowerLayer:sum(packetBytes) 337507
scalar MultiCell_withSecondaryGnb.secondaryGnb1.cellularNic.mac receivedPacketFromUpperLayer:count 0
scalar MultiCell_withSecondaryGnb.secondaryGnb1.cellularNic.mac receivedPacketFromUpperLayer:sum(packetBytes) 0
scalar MultiCell_withSecondaryGnb.secondaryGnb1.cellularNic.mac macBufferOverFlowD2D:mean -nan
scalar MultiCell_withSecondaryGnb.secondaryGnb1.cellularNic.mac macBufferOverFlowUl:mean -nan
scalar MultiCell_withSecondaryGnb.secondaryGnb1.cellularNic.mac macBufferOverFlowDl:mean -nan
scalar MultiCell_withSecondaryGnb.secondaryGnb1.cellularNic.channelModel[0] measuredSinrUl:mean -nan
scalar MultiCell_withSecondaryGnb.secondaryGnb1.cellularNic.channelModel[0] measuredSinrDl:mean -nan
scalar MultiCell_withSecondaryGnb.secondaryGnb1.cellularNic.channelModel[0] rcvdSinrD2D:mean -nan
scalar MultiCell_withSecondaryGnb.secondaryGnb1.cellularNic.channelModel[0] rcvdSinrUl:mean -nan
scalar MultiCell_withSecondaryGnb.secondaryGnb1.cellularNic.channelModel[0] rcvdSinrDl:mean -nan
scalar MultiCell_withSecondaryGnb.secondaryGnb1.cellularNic packetDropInterfaceDown:count 0
scalar MultiCell_withSecondaryGnb.secondaryGnb1.cellularNic packetDropInterfaceDown:sum(packetBytes) 0
scalar MultiCell_withSecondaryGnb.secondaryGnb1.cellularNic packetDropNoCarrier:count 0
scalar MultiCell_withSecondaryGnb.secondaryGnb1.cellularNic packetDropNoCarrier:sum(packetBytes) 0
scalar MultiCell_withSecondaryGnb.secondaryGnb1.pppIf.queue queueLength:last 0
scalar MultiCell_withSecondaryGnb.secondaryGnb1.pppIf.queue queueLength:max 0
scalar MultiCell_withSecondaryGnb.secondaryGnb1.pppIf.queue queueLength:timeavg 0
scalar MultiCell_withSecondaryGnb.secondaryGnb1.pppIf.queue queueBitLength:last 0
scalar MultiCell_withSecondaryGnb.secondaryGnb1.pppIf.queue queueBitLength:max 0
scalar MultiCell_withSecondaryGnb.secondaryGnb1.pppIf.queue queueBitLength:timeavg 0
scalar MultiCell_withSecondaryGnb.secondaryGnb1.pppIf.queue outgoingPackets:count 0
scalar MultiCell_withSecondaryGnb.secondaryGnb1.pppIf.queue outgoingPacketLengths:sum 0
scalar MultiCell_withSecondaryGnb.secondaryGnb1.pppIf.queue incomingPackets:count 0
scalar MultiCell_withSecondaryGnb.secondaryGnb1.pppIf.queue incomingPacketLengths:sum 0
scalar MultiCell_withSecondaryGnb.secondaryGnb1.pppIf.queue droppedPacketsQueueOverflow:count 0
scalar MultiCell_withSecondaryGnb.secondaryGnb1.pppIf.queue droppedPacketLengthsQueueOverflow:sum 0
scalar MultiCell_withSecondaryGnb.secondaryGnb1.pppIf.ppp transmissionState:timeavg -nan
scalar MultiCell_withSecondaryGnb.secondaryGnb1.pppIf.ppp rxPkOk:count 0
scalar MultiCell_withSecondaryGnb.secondaryGnb1.pppIf.ppp rxPkOk:sum(packetBytes) 0
scalar MultiCell_withSecondaryGnb.secondaryGnb1.pppIf.ppp txPk:count 0
scalar MultiCell_withSecondaryGnb.secondaryGnb1.pppIf.ppp txPk:sum(packetBytes) 0
scalar MultiCell_withSecondaryGnb.secondaryGnb1.pppIf.ppp rcvdPkFromHl:count 0
scalar MultiCell_withSecondaryGnb.secondaryGnb1.pppIf.ppp rcvdPkFromHl:sum(packetBytes) 0
scalar MultiCell_withSecondaryGnb.secondaryGnb1.pppIf.ppp passedUpPk:count 0
scalar MultiCell_withSecondaryGnb.secondaryGnb1.pppIf.ppp passedUpPk:sum(packetBytes) 0
scalar MultiCell_withSecondaryGnb.secondaryGnb1.pppIf.ppp packetDropIncorrectlyReceived:count 0
scalar MultiCell_withSecondaryGnb.secondaryGnb1.pppIf.ppp packetDropIncorrectlyReceived:sum(packetBytes) 0
scalar MultiCell_withSecondaryGnb.secondaryGnb1.pppIf.ppp packetDropInterfaceDown:count 0
scalar MultiCell_withSecondaryGnb.secondaryGnb1.pppIf.ppp packetDropInterfaceDown:sum(packetBytes) 0
scalar MultiCell_withSecondaryGnb.secondaryGnb1.pppIf packetDropInterfaceDown:count 0
scalar MultiCell_withSecondaryGnb.secondaryGnb1.pppIf packetDropInterfaceDown:sum(packetBytes) 0
scalar MultiCell_withSecondaryGnb.secondaryGnb1.pppIf packetDropNoCarrier:count 0
scalar MultiCell_withSecondaryGnb.secondaryGnb1.pppIf packetDropNoCarrier:sum(packetBytes) 0
scalar MultiCell_withSecondaryGnb.secondaryGnb1.x2ppp[0].queue queueLength:last 0
scalar MultiCell_withSecondaryGnb.secondaryGnb1.x2ppp[0].queue queueLength:max 0
scalar MultiCell_withSecondaryGnb.secondaryGnb1.x2ppp[0].queue queueLength:timeavg 0
scalar MultiCell_withSecondaryGnb.secondaryGnb1.x2ppp[0].queue queueBitLength:last 0
scalar MultiCell_withSecondaryGnb.secondaryGnb1.x2ppp[0].queue queueBitLength:max 0
scalar MultiCell_withSecondaryGnb.secondaryGnb1.x2ppp[0].queue queueBitLength:timeavg 0
scalar MultiCell_withSecondaryGnb.secondaryGnb1.x2ppp[0].queue outgoingPackets:count 320
scalar MultiCell_withSecondaryGnb.secondaryGnb1.x2ppp[0].queue outgoingPacketLengths:sum 2754560
scalar MultiCell_withSecondaryGnb.secondaryGnb1.x2ppp[0].queue incomingPackets:count 320
scalar MultiCell_withSecondaryGnb.secondaryGnb1.x2ppp[0].queue incomingPacketLengths:sum 2754560
scalar MultiCell_withSecondaryGnb.secondaryGnb1.x2ppp[0].queue droppedPacketsQueueOverflow:count 0
scalar MultiCell_withSecondaryGnb.secondaryGnb1.x2ppp[0].queue droppedPacketLengthsQueueOverflow:sum 0
scalar MultiCell_withSecondaryGnb.secondaryGnb1.x2ppp[0].ppp transmissionState:timeavg 7.116587093793333e-06
scalar MultiCell_withSecondaryGnb.secondaryGnb1.x2ppp[0].ppp rxPkOk:count 0
scalar MultiCell_withSecondaryGnb.secondaryGnb1.x2ppp[0].ppp rxPkOk:sum(packetBytes) 0
scalar MultiCell_withSecondaryGnb.secondaryGnb1.x2ppp[0].ppp txPk:count 320
scalar MultiCell_withSecondaryGnb.secondaryGnb1.x2ppp[0].ppp txPk:sum(packetBytes) 346560
scalar MultiCell_withSecondaryGnb.secondaryGnb1.x2ppp[0].ppp rcvdPkFromHl:count 320
scalar MultiCell_withSecondaryGnb.secondaryGnb1.x2ppp[0].ppp rcvdPkFromHl:sum(packetBytes) 344320
scalar MultiCell_withSecondaryGnb.secondaryGnb1.x2ppp[0].ppp passedUpPk:count 0
scalar MultiCell_withSecondaryGnb.secondaryGnb1.x2ppp[0].ppp passedUpPk:sum(packetBytes) 0
scalar MultiCell_withSecondaryGnb.secondaryGnb1.x2ppp[0].ppp packetDropIncorrectlyReceived:count 0
scalar MultiCell_withSecondaryGnb.secondaryGnb1.x2ppp[0].ppp packetDropIncorrectlyReceived:sum(packetBytes) 0
scalar MultiCell_withSecondaryGnb.secondaryGnb1.x2ppp[0].ppp packetDropInterfaceDown:count 0
scalar MultiCell_withSecondaryGnb.secondaryGnb1.x2ppp[0].ppp packetDropInterfaceDown:sum(packetBytes) 0
scalar MultiCell_withSecondaryGnb.secondaryGnb1.x2ppp[0] packetDropInterfaceDown:count 0
scalar MultiCell_withSecondaryGnb.secondaryGnb1.x2ppp[0] packetDropInterfaceDown:sum(packetBytes) 0
scalar MultiCell_withSecondaryGnb.secondaryGnb1.x2ppp[0] packetDropNoCarrier:count 0
scalar MultiCell_withSecondaryGnb.secondaryGnb1.x2ppp[0] packetDropNoCarrier:sum(packetBytes) 0
scalar MultiCell_withSecondaryGnb.secondaryGnb1.pppMEHostIf.queue queueLength:last 0
scalar MultiCell_withSecondaryGnb.secondaryGnb1.pppMEHostIf.queue queueLength:max 0
scalar MultiCell_withSecondaryGnb.secondaryGnb1.pppMEHostIf.queue queueLength:timeavg 0
scalar MultiCell_withSecondaryGnb.secondaryGnb1.pppMEHostIf.queue queueBitLength:last 0
scalar MultiCell_withSecondaryGnb.secondaryGnb1.pppMEHostIf.queue queueBitLength:max 0
scalar MultiCell_withSecondaryGnb.secondaryGnb1.pppMEHostIf.queue queueBitLength:timeavg 0
scalar MultiCell_withSecondaryGnb.secondaryGnb1.pppMEHostIf.queue outgoingPackets:count 0
scalar MultiCell_withSecondaryGnb.secondaryGnb1.pppMEHostIf.queue outgoingPacketLengths:sum 0
scalar MultiCell_withSecondaryGnb.secondaryGnb1.pppMEHostIf.queue incomingPackets:count 0
scalar MultiCell_withSecondaryGnb.secondaryGnb1.pppMEHostIf.queue incomingPacketLengths:sum 0
scalar MultiCell_withSecondaryGnb.secondaryGnb1.pppMEHostIf.queue droppedPacketsQueueOverflow:count 0
scalar MultiCell_withSecondaryGnb.secondaryGnb1.pppMEHostIf.queue droppedPacketLengthsQueueOverflow:sum 0
scalar MultiCell_withSecondaryGnb.secondaryGnb1.pppMEHostIf.ppp transmissionState:timeavg -nan
scalar MultiCell_withSecondaryGnb.secondaryGnb1.pppMEHostIf.ppp rxPkOk:count 0
scalar MultiCell_withSecondaryGnb.secondaryGnb1.pppMEHostIf.ppp rxPkOk:sum(packetBytes) 0
scalar MultiCell_withSecondaryGnb.secondaryGnb1.pppMEHostIf.ppp txPk:count 0
scalar MultiCell_withSecondaryGnb.secondaryGnb1.pppMEHostIf.ppp txPk:sum(packetBytes) 0
scalar MultiCell_withSecondaryGnb.secondaryGnb1.pppMEHostIf.ppp rcvdPkFromHl:count 0
scalar MultiCell_withSecondaryGnb.secondaryGnb1.pppMEHostIf.ppp rcvdPkFromHl:sum(packetBytes) 0
scalar MultiCell_withSecondaryGnb.secondaryGnb1.pppMEHostIf.ppp passedUpPk:count 0
scalar MultiCell_withSecondaryGnb.secondaryGnb1.pppMEHostIf.ppp passedUpPk:sum(packetBytes) 0
scalar MultiCell_withSecondaryGnb.secondaryGnb1.pppMEHostIf.ppp packetDropIncorrectlyReceived:count 0
scalar MultiCell_withSecondaryGnb.secondaryGnb1.pppMEHostIf.ppp packetDropIncorrectlyReceived:sum(packetBytes) 0
scalar MultiCell_withSecondaryGnb.secondaryGnb1.pppMEHostIf.ppp packetDropInterfaceDown:count 0
scalar MultiCell_withSecondaryGnb.secondaryGnb1.pppMEHostIf.ppp packetDropInterfaceDown:sum(packetBytes) 0
scalar MultiCell_withSecondaryGnb.secondaryGnb1.pppMEHostIf packetDropInterfaceDown:count 0
scalar MultiCell_withSecondaryGnb.secondaryGnb1.pppMEHostIf packetDropInterfaceDown:sum(packetBytes) 0
scalar MultiCell_withSecondaryGnb.secondaryGnb1.pppMEHostIf packetDropNoCarrier:count 0
scalar MultiCell_withSecondaryGnb.secondaryGnb1.pppMEHostIf packetDropNoCarrier:sum(packetBytes) 0
scalar MultiCell_withSecondaryGnb.secondaryGnb1.ipv4.ip packetDropAddressResolutionFailed:count 0
scalar MultiCell_withSecondaryGnb.secondaryGnb1.ipv4.ip packetDropAddressResolutionFailed:sum(packetBytes) 0
scalar MultiCell_withSecondaryGnb.secondaryGnb1.ipv4.ip packetDropHopLimitReached:count 0
scalar MultiCell_withSecondaryGnb.secondaryGnb1.ipv4.ip packetDropHopLimitReached:sum(packetBytes) 0
scalar MultiCell_withSecondaryGnb.secondaryGnb1.ipv4.ip packetDropForwardingDisabled:count 0
scalar MultiCell_withSecondaryGnb.secondaryGnb1.ipv4.ip packetDropForwardingDisabled:sum(packetBytes) 0
scalar MultiCell_withSecondaryGnb.secondaryGnb1.ipv4.ip packetDropNoInterfaceFound:count 0
scalar MultiCell_withSecondaryGnb.secondaryGnb1.ipv4.ip packetDropNoInterfaceFound:sum(packetBytes) 0
scalar MultiCell_withSecondaryGnb.secondaryGnb1.ipv4.ip packetDropNoRouteFound:count 0
scalar MultiCell_withSecondaryGnb.secondaryGnb1.ipv4.ip packetDropNoRouteFound:sum(packetBytes) 0
scalar MultiCell_withSecondaryGnb.secondaryGnb1.ipv4.ip packetDropUndefined:count 0
scalar MultiCell_withSecondaryGnb.secondaryGnb1.ipv4.ip packetDropUndefined:sum(packetBytes) 0
scalar MultiCell_withSecondaryGnb.secondaryGnb1.ipv4.arp arpResolutionFailed:count 0
scalar MultiCell_withSecondaryGnb.secondaryGnb1.ipv4.arp arpResolutionCompleted:count 0
scalar MultiCell_withSecondaryGnb.secondaryGnb1.ipv4.arp arpResolutionInitiated:count 0
scalar MultiCell_withSecondaryGnb.secondaryGnb1.ipv4.arp arpReplySent:count 0
scalar MultiCell_withSecondaryGnb.secondaryGnb1.ipv4.arp arpReplySent:sum(packetBytes) 0
scalar MultiCell_withSecondaryGnb.secondaryGnb1.ipv4.arp arpRequestSent:count 0
scalar MultiCell_withSecondaryGnb.secondaryGnb1.ipv4.arp arpRequestSent:sum(packetBytes) 0
scalar MultiCell_withSecondaryGnb.secondaryGnb1.udp packetReceived:count 0
scalar MultiCell_withSecondaryGnb.secondaryGnb1.udp packetReceived:sum(packetBytes) 0
scalar MultiCell_withSecondaryGnb.secondaryGnb1.udp packetSent:count 320
scalar MultiCell_withSecondaryGnb.secondaryGnb1.udp packetSent:sum(packetBytes) 337920
scalar MultiCell_withSecondaryGnb.secondaryGnb1.udp passedUpPk:count 0
scalar MultiCell_withSecondaryGnb.secondaryGnb1.udp droppedPkWrongPort:count 0
scalar MultiCell_withSecondaryGnb.secondaryGnb1.udp droppedPkBadChecksum:count 0
scalar MultiCell_withSecondaryGnb.secondaryGnb1.x2App[0].client packetReceived:count 0
scalar MultiCell_withSecondaryGnb.secondaryGnb1.x2App[0].client packetReceived:sum(packetBytes) 0
scalar MultiCell_withSecondaryGnb.secondaryGnb1.x2App[0].client packetSent:count 0
scalar MultiCell_withSecondaryGnb.secondaryGnb1.x2App[0].client packetSent:sum(packetBytes) 0
scalar MultiCell_withSecondaryGnb.secondaryGnb1.x2App[0].client echoedPk:count 0
scalar MultiCell_withSecondaryGnb.secondaryGnb1.x2App[0].client echoedPk:sum(packetBytes) 0
scalar MultiCell_withSecondaryGnb.secondaryGnb1.x2App[0].server "bytes rcvd" 0
scalar MultiCell_withSecondaryGnb.secondaryGnb1.x2App[0].server throughput -nan
scalar MultiCell_withSecondaryGnb.masterEnb2.cellularNic.pdcp sentPacketToLowerLayer:count 0
scalar MultiCell_withSecondaryGnb.masterEnb2.cellularNic.pdcp sentPacketToLowerLayer:sum(packetBytes) 0
scalar MultiCell_withSecondaryGnb.masterEnb2.cellularNic.pdcp sentPacketToUpperLayer:count 916
scalar MultiCell_withSecondaryGnb.masterEnb2.cellularNic.pdcp sentPacketToUpperLayer:sum(packetBytes) 941648
scalar MultiCell_withSecondaryGnb.masterEnb2.cellularNic.pdcp receivedPacketFromLowerLayer:count 916
scalar MultiCell_withSecondaryGnb.masterEnb2.cellularNic.pdcp receivedPacketFromLowerLayer:sum(packetBytes) 942564
scalar MultiCell_withSecondaryGnb.masterEnb2.cellularNic.pdcp receivedPacketFromUpperLayer:count 0
scalar MultiCell_withSecondaryGnb.masterEnb2.cellularNic.pdcp receivedPacketFromUpperLayer:sum(packetBytes) 0
scalar MultiCell_withSecondaryGnb.masterEnb2.cellularNic.rlc.tm rlcPacketLossUl:mean -nan
scalar MultiCell_withSecondaryGnb.masterEnb2.cellularNic.rlc.tm rlcPacketLossUl:sum 0
scalar MultiCell_withSecondaryGnb.masterEnb2.cellularNic.rlc.tm rlcPacketLossDl:mean -nan
scalar MultiCell_withSecondaryGnb.masterEnb2.cellularNic.rlc.tm rlcPacketLossDl:sum 0
scalar MultiCell_withSecondaryGnb.masterEnb2.cellularNic.rlc.tm sentPacketToLowerLayer:count 0
scalar MultiCell_withSecondaryGnb.masterEnb2.cellularNic.rlc.tm sentPacketToLowerLayer:sum(packetBytes) 0
scalar MultiCell_withSecondaryGnb.masterEnb2.cellularNic.rlc.tm sentPacketToUpperLayer:count 0
scalar MultiCell_withSecondaryGnb.masterEnb2.cellularNic.rlc.tm sentPacketToUpperLayer:sum(packetBytes) 0
scalar MultiCell_withSecondaryGnb.masterEnb2.cellularNic.rlc.tm receivedPacketFromLowerLayer:count 0
scalar MultiCell_withSecondaryGnb.masterEnb2.cellularNic.rlc.tm receivedPacketFromLowerLayer:sum(packetBytes) 0
scalar MultiCell_withSecondaryGnb.masterEnb2.cellularNic.rlc.tm receivedPacketFromUpperLayer:count 0
scalar MultiCell_withSecondaryGnb.masterEnb2.cellularNic.rlc.tm receivedPacketFromUpperLayer:sum(packetBytes) 0
scalar MultiCell_withSecondaryGnb.masterEnb2.cellularNic.rlc.um rlcCellThroughputD2D:simu5g_rateavg -nan
scalar MultiCell_withSecondaryGnb.masterEnb2.cellularNic.rlc.um rlcPduThroughputD2D:simu5g_rateavg -nan
scalar MultiCell_withSecondaryGnb.masterEnb2.cellularNic.rlc.um rlcPduDelayD2D:mean -nan
scalar MultiCell_withSecondaryGnb.masterEnb2.cellularNic.rlc.um rlcThroughputD2D:simu5g_rateavg -nan
scalar MultiCell_withSecondaryGnb.masterEnb2.cellularNic.rlc.um rlcDelayD2D:mean -nan
scalar MultiCell_withSecondaryGnb.masterEnb2.cellularNic.rlc.um rlcCellThroughputUl:simu5g_rateavg 43091.432100235936
scalar MultiCell_withSecondaryGnb.masterEnb2.cellularNic.rlc.um rlcCellThroughputDl:simu5g_rateavg -nan
scalar MultiCell_withSecondaryGnb.masterEnb2.cellularNic.rlc.um rlcPduThroughputUl:simu5g_rateavg -nan
scalar MultiCell_withSecondaryGnb.masterEnb2.cellularNic.rlc.um rlcPduThroughputDl:simu5g_rateavg -nan
scalar MultiCell_withSecondaryGnb.masterEnb2.cellularNic.rlc.um rlcPduDelayUl:mean -nan
scalar MultiCell_withSecondaryGnb.masterEnb2.cellularNic.rlc.um rlcPduDelayDl:mean -nan
scalar MultiCell_withSecondaryGnb.masterEnb2.cellularNic.rlc.um rlcThroughputUl:simu5g_rateavg -nan
scalar MultiCell_withSecondaryGnb.masterEnb2.cellularNic.rlc.um rlcThroughputDl:simu5g_rateavg -nan
scalar MultiCell_withSecondaryGnb.masterEnb2.cellularNic.rlc.um rlcDelayUl:mean -nan
scalar MultiCell_withSecondaryGnb.masterEnb2.cellularNic.rlc.um rlcDelayDl:mean -nan
scalar MultiCell_withSecondaryGnb.masterEnb2.cellularNic.rlc.um sentPacketToLowerLayer:count 0
scalar MultiCell_withSecondaryGnb.masterEnb2.cellularNic.rlc.um sentPacketToLowerLayer:sum(packetBytes) 0
scalar MultiCell_withSecondaryGnb.masterEnb2.cellularNic.rlc.um sentPacketToUpperLayer:count 478
scalar MultiCell_withSecondaryGnb.masterEnb2.cellularNic.rlc.um sentPacketToUpperLayer:sum(packetBytes) 491862
scalar MultiCell_withSecondaryGnb.masterEnb2.cellularNic.rlc.um receivedPacketFromLowerLayer:count 971
scalar MultiCell_withSecondaryGnb.masterEnb2.cellularNic.rlc.um receivedPacketFromLowerLayer:sum(packetBytes) 493804
scalar MultiCell_withSecondaryGnb.masterEnb2.cellularNic.rlc.um receivedPacketFromUpperLayer:count 0
scalar MultiCell_withSecondaryGnb.masterEnb2.cellularNic.rlc.um receivedPacketFromUpperLayer:sum(packetBytes) 0
scalar MultiCell_withSecondaryGnb.masterEnb2.cellularNic.rlc.am rlcPacketLossTotal:mean -nan
scalar MultiCell_withSecondaryGnb.masterEnb2.cellularNic.rlc.am rlcCellThroughputUl:simu5g_rateavg -nan
scalar MultiCell_withSecondaryGnb.masterEnb2.cellularNic.rlc.am rlcCellThroughputDl:simu5g_rateavg -nan
scalar MultiCell_withSecondaryGnb.masterEnb2.cellularNic.rlc.am rlcPduThroughputUl:simu5g_rateavg -nan
scalar MultiCell_withSecondaryGnb.masterEnb2.cellularNic.rlc.am rlcPduThroughputDl:simu5g_rateavg -nan
scalar MultiCell_withSecondaryGnb.masterEnb2.cellularNic.rlc.am rlcPduDelayUl:mean -nan
scalar MultiCell_withSecondaryGnb.masterEnb2.cellularNic.rlc.am rlcPduDelayDl:mean -nan
scalar MultiCell_withSecondaryGnb.masterEnb2.cellularNic.rlc.am rlcThroughputUl:simu5g_rateavg -nan
scalar MultiCell_withSecondaryGnb.masterEnb2.cellularNic.rlc.am rlcThroughputDl:simu5g_rateavg -nan
scalar MultiCell_withSecondaryGnb.masterEnb2.cellularNic.rlc.am rlcDelayUl:mean -nan
scalar MultiCell_withSecondaryGnb.masterEnb2.cellularNic.rlc.am rlcDelayDl:mean -nan
scalar MultiCell_withSecondaryGnb.masterEnb2.cellularNic.rlc.am rlcPduPacketLossUl:mean -nan
scalar MultiCell_withSecondaryGnb.masterEnb2.cellularNic.rlc.am rlcPduPacketLossDl:mean -nan
scalar MultiCell_withSecondaryGnb.masterEnb2.cellularNic.rlc.am rlcPacketLossUl:mean -nan
scalar MultiCell_withSecondaryGnb.masterEnb2.cellularNic.rlc.am rlcPacketLossDl:mean -nan
scalar MultiCell_withSecondaryGnb.masterEnb2.cellularNic.rlc.am rlcCellPacketLossUl:mean -nan
scalar MultiCell_withSecondaryGnb.masterEnb2.cellularNic.rlc.am rlcCellPacketLossDl:mean -nan
scalar MultiCell_withSecondaryGnb.masterEnb2.cellularNic.mac avgServedBlocksUl:mean 0.14704751160226662
scalar MultiCell_withSecondaryGnb.masterEnb2.cellularNic.mac avgServedBlocksDl:mean 0
[...]
scalar MultiCell_withSecondaryGnb.masterEnb2.sctp "Number of Revokable Gap Blocks in SACK 52:mean" 0
scalar MultiCell_withSecondaryGnb.masterEnb2.sctp "Number of Revokable Gap Blocks in SACK 52:stddev" nan
scalar MultiCell_withSecondaryGnb.masterEnb2.sctp "Number of Revokable Gap Blocks in SACK 52:min" 0
scalar MultiCell_withSecondaryGnb.masterEnb2.sctp "Number of Revokable Gap Blocks in SACK 52:max" 0
scalar MultiCell_withSecondaryGnb.masterEnb2.sctp "Number of Revokable Gap Blocks in SACK 52:starttime" 17.075020200800004
scalar MultiCell_withSecondaryGnb.masterEnb2.sctp "Number of Revokable Gap Blocks in SACK 52:endtime" 17.075020200800004
scalar MultiCell_withSecondaryGnb.masterEnb2.sctp "Number of Non-Revokable Gap Blocks in SACK 52:count" 1
scalar MultiCell_withSecondaryGnb.masterEnb2.sctp "Number of Non-Revokable Gap Blocks in SACK 52:sum" 0
scalar MultiCell_withSecondaryGnb.masterEnb2.sctp "Number of Non-Revokable Gap Blocks in SACK 52:sumweights" 1
scalar MultiCell_withSecondaryGnb.masterEnb2.sctp "Number of Non-Revokable Gap Blocks in SACK 52:mean" 0
scalar MultiCell_withSecondaryGnb.masterEnb2.sctp "Number of Non-Revokable Gap Blocks in SACK 52:stddev" nan
scalar MultiCell_withSecondaryGnb.masterEnb2.sctp "Number of Non-Revokable Gap Blocks in SACK 52:min" 0
scalar MultiCell_withSecondaryGnb.masterEnb2.sctp "Number of Non-Revokable Gap Blocks in SACK 52:max" 0
scalar MultiCell_withSecondaryGnb.masterEnb2.sctp "Number of Non-Revokable Gap Blocks in SACK 52:starttime" 17.075020200800004
scalar MultiCell_withSecondaryGnb.masterEnb2.sctp "Number of Non-Revokable Gap Blocks in SACK 52:endtime" 17.075020200800004
scalar MultiCell_withSecondaryGnb.masterEnb2.sctp "TSN Acked CumAck 55:10.0.5.2:count" 1
scalar MultiCell_withSecondaryGnb.masterEnb2.sctp "TSN Acked CumAck 55:10.0.5.2:sum" 2000
scalar MultiCell_withSecondaryGnb.masterEnb2.sctp "TSN Acked CumAck 55:10.0.5.2:sumweights" 1
scalar MultiCell_withSecondaryGnb.masterEnb2.sctp "TSN Acked CumAck 55:10.0.5.2:mean" 2000
scalar MultiCell_withSecondaryGnb.masterEnb2.sctp "TSN Acked CumAck 55:10.0.5.2:stddev" nan
scalar MultiCell_withSecondaryGnb.masterEnb2.sctp "TSN Acked CumAck 55:10.0.5.2:min" 2000
scalar MultiCell_withSecondaryGnb.masterEnb2.sctp "TSN Acked CumAck 55:10.0.5.2:max" 2000
scalar MultiCell_withSecondaryGnb.masterEnb2.sctp "TSN Acked CumAck 55:10.0.5.2:starttime" 17.075020200800004
scalar MultiCell_withSecondaryGnb.masterEnb2.sctp "TSN Acked CumAck 55:10.0.5.2:endtime" 17.075020200800004
scalar MultiCell_withSecondaryGnb.masterEnb2.sctp "RTT 55:10.0.5.2:count" 1
scalar MultiCell_withSecondaryGnb.masterEnb2.sctp "RTT 55:10.0.5.2:sum" 2.008e-07
scalar MultiCell_withSecondaryGnb.masterEnb2.sctp "RTT 55:10.0.5.2:sumweights" 1
scalar MultiCell_withSecondaryGnb.masterEnb2.sctp "RTT 55:10.0.5.2:mean" 2.008e-07
scalar MultiCell_withSecondaryGnb.masterEnb2.sctp "RTT 55:10.0.5.2:stddev" nan
scalar MultiCell_withSecondaryGnb.masterEnb2.sctp "RTT 55:10.0.5.2:min" 2.008e-07
scalar MultiCell_withSecondaryGnb.masterEnb2.sctp "RTT 55:10.0.5.2:max" 2.008e-07
scalar MultiCell_withSecondaryGnb.masterEnb2.sctp "RTT 55:10.0.5.2:starttime" 17.075020200800004
scalar MultiCell_withSecondaryGnb.masterEnb2.sctp "RTT 55:10.0.5.2:endtime" 17.075020200800004
scalar MultiCell_withSecondaryGnb.masterEnb2.sctp "Number of Gap Acked Chunks in Last SACK 55:10.0.2.4:count" 1
scalar MultiCell_withSecondaryGnb.masterEnb2.sctp "Number of Gap Acked Chunks in Last SACK 55:10.0.2.4:sum" 0
scalar MultiCell_withSecondaryGnb.masterEnb2.sctp "Number of Gap Acked Chunks in Last SACK 55:10.0.2.4:sumweights" 1
scalar MultiCell_withSecondaryGnb.masterEnb2.sctp "Number of Gap Acked Chunks in Last SACK 55:10.0.2.4:mean" 0
scalar MultiCell_withSecondaryGnb.masterEnb2.sctp "Number of Gap Acked Chunks in Last SACK 55:10.0.2.4:stddev" nan
scalar MultiCell_withSecondaryGnb.masterEnb2.sctp "Number of Gap Acked Chunks in Last SACK 55:10.0.2.4:min" 0
scalar MultiCell_withSecondaryGnb.masterEnb2.sctp "Number of Gap Acked Chunks in Last SACK 55:10.0.2.4:max" 0
scalar MultiCell_withSecondaryGnb.masterEnb2.sctp "Number of Gap Acked Chunks in Last SACK 55:10.0.2.4:starttime" 17.075020200800004
scalar MultiCell_withSecondaryGnb.masterEnb2.sctp "Number of Gap Acked Chunks in Last SACK 55:10.0.2.4:endtime" 17.075020200800004
scalar MultiCell_withSecondaryGnb.masterEnb2.sctp "Number of Non-Revokable Gap Acked Chunks in Last SACK 55:10.0.2.4:count" 1
scalar MultiCell_withSecondaryGnb.masterEnb2.sctp "Number of Non-Revokable Gap Acked Chunks in Last SACK 55:10.0.2.4:sum" 0
scalar MultiCell_withSecondaryGnb.masterEnb2.sctp "Number of Non-Revokable Gap Acked Chunks in Last SACK 55:10.0.2.4:sumweights" 1
scalar MultiCell_withSecondaryGnb.masterEnb2.sctp "Number of Non-Revokable Gap Acked Chunks in Last SACK 55:10.0.2.4:mean" 0
scalar MultiCell_withSecondaryGnb.masterEnb2.sctp "Number of Non-Revokable Gap Acked Chunks in Last SACK 55:10.0.2.4:stddev" nan
scalar MultiCell_withSecondaryGnb.masterEnb2.sctp "Number of Non-Revokable Gap Acked Chunks in Last SACK 55:10.0.2.4:min" 0
scalar MultiCell_withSecondaryGnb.masterEnb2.sctp "Number of Non-Revokable Gap Acked Chunks in Last SACK 55:10.0.2.4:max" 0
scalar MultiCell_withSecondaryGnb.masterEnb2.sctp "Number of Non-Revokable Gap Acked Chunks in Last SACK 55:10.0.2.4:starttime" 17.075020200800004
scalar MultiCell_withSecondaryGnb.masterEnb2.sctp "Number of Non-Revokable Gap Acked Chunks in Last SACK 55:10.0.2.4:endtime" 17.075020200800004
scalar MultiCell_withSecondaryGnb.masterEnb2.sctp "Number of Gap Missed Chunks in Last SACK 55:10.0.2.4:count" 1
scalar MultiCell_withSecondaryGnb.masterEnb2.sctp "Number of Gap Missed Chunks in Last SACK 55:10.0.2.4:sum" 0
scalar MultiCell_withSecondaryGnb.masterEnb2.sctp "Number of Gap Missed Chunks in Last SACK 55:10.0.2.4:sumweights" 1
scalar MultiCell_withSecondaryGnb.masterEnb2.sctp "Number of Gap Missed Chunks in Last SACK 55:10.0.2.4:mean" 0
scalar MultiCell_withSecondaryGnb.masterEnb2.sctp "Number of Gap Missed Chunks in Last SACK 55:10.0.2.4:stddev" nan
scalar MultiCell_withSecondaryGnb.masterEnb2.sctp "Number of Gap Missed Chunks in Last SACK 55:10.0.2.4:min" 0
scalar MultiCell_withSecondaryGnb.masterEnb2.sctp "Number of Gap Missed Chunks in Last SACK 55:10.0.2.4:max" 0
scalar MultiCell_withSecondaryGnb.masterEnb2.sctp "Number of Gap Missed Chunks in Last SACK 55:10.0.2.4:starttime" 17.075020200800004
scalar MultiCell_withSecondaryGnb.masterEnb2.sctp "Number of Gap Missed Chunks in Last SACK 55:10.0.2.4:endtime" 17.075020200800004
scalar MultiCell_withSecondaryGnb.masterEnb2.sctp "Number of Gap Acked Chunks in Last SACK 55:10.0.5.2:count" 1
scalar MultiCell_withSecondaryGnb.masterEnb2.sctp "Number of Gap Acked Chunks in Last SACK 55:10.0.5.2:sum" 0
scalar MultiCell_withSecondaryGnb.masterEnb2.sctp "Number of Gap Acked Chunks in Last SACK 55:10.0.5.2:sumweights" 1
scalar MultiCell_withSecondaryGnb.masterEnb2.sctp "Number of Gap Acked Chunks in Last SACK 55:10.0.5.2:mean" 0
scalar MultiCell_withSecondaryGnb.masterEnb2.sctp "Number of Gap Acked Chunks in Last SACK 55:10.0.5.2:stddev" nan
scalar MultiCell_withSecondaryGnb.masterEnb2.sctp "Number of Gap Acked Chunks in Last SACK 55:10.0.5.2:min" 0
scalar MultiCell_withSecondaryGnb.masterEnb2.sctp "Number of Gap Acked Chunks in Last SACK 55:10.0.5.2:max" 0
scalar MultiCell_withSecondaryGnb.masterEnb2.sctp "Number of Gap Acked Chunks in Last SACK 55:10.0.5.2:starttime" 17.075020200800004
scalar MultiCell_withSecondaryGnb.masterEnb2.sctp "Number of Gap Acked Chunks in Last SACK 55:10.0.5.2:endtime" 17.075020200800004
scalar MultiCell_withSecondaryGnb.masterEnb2.sctp "Number of Non-Revokable Gap Acked Chunks in Last SACK 55:10.0.5.2:count" 1
scalar MultiCell_withSecondaryGnb.masterEnb2.sctp "Number of Non-Revokable Gap Acked Chunks in Last SACK 55:10.0.5.2:sum" 0
scalar MultiCell_withSecondaryGnb.masterEnb2.sctp "Number of Non-Revokable Gap Acked Chunks in Last SACK 55:10.0.5.2:sumweights" 1
scalar MultiCell_withSecondaryGnb.masterEnb2.sctp "Number of Non-Revokable Gap Acked Chunks in Last SACK 55:10.0.5.2:mean" 0
scalar MultiCell_withSecondaryGnb.masterEnb2.sctp "Number of Non-Revokable Gap Acked Chunks in Last SACK 55:10.0.5.2:stddev" nan
scalar MultiCell_withSecondaryGnb.masterEnb2.sctp "Number of Non-Revokable Gap Acked Chunks in Last SACK 55:10.0.5.2:min" 0
scalar MultiCell_withSecondaryGnb.masterEnb2.sctp "Number of Non-Revokable Gap Acked Chunks in Last SACK 55:10.0.5.2:max" 0
scalar MultiCell_withSecondaryGnb.masterEnb2.sctp "Number of Non-Revokable Gap Acked Chunks in Last SACK 55:10.0.5.2:starttime" 17.075020200800004
scalar MultiCell_withSecondaryGnb.masterEnb2.sctp "Number of Non-Revokable Gap Acked Chunks in Last SACK 55:10.0.5.2:endtime" 17.075020200800004
scalar MultiCell_withSecondaryGnb.masterEnb2.sctp "Number of Gap Missed Chunks in Last SACK 55:10.0.5.2:count" 1
scalar MultiCell_withSecondaryGnb.masterEnb2.sctp "Number of Gap Missed Chunks in Last SACK 55:10.0.5.2:sum" 0
scalar MultiCell_withSecondaryGnb.masterEnb2.sctp "Number of Gap Missed Chunks in Last SACK 55:10.0.5.2:sumweights" 1
scalar MultiCell_withSecondaryGnb.masterEnb2.sctp "Number of Gap Missed Chunks in Last SACK 55:10.0.5.2:mean" 0
scalar MultiCell_withSecondaryGnb.masterEnb2.sctp "Number of Gap Missed Chunks in Last SACK 55:10.0.5.2:stddev" nan
scalar MultiCell_withSecondaryGnb.masterEnb2.sctp "Number of Gap Missed Chunks in Last SACK 55:10.0.5.2:min" 0
scalar MultiCell_withSecondaryGnb.masterEnb2.sctp "Number of Gap Missed Chunks in Last SACK 55:10.0.5.2:max" 0
scalar MultiCell_withSecondaryGnb.masterEnb2.sctp "Number of Gap Missed Chunks in Last SACK 55:10.0.5.2:starttime" 17.075020200800004
scalar MultiCell_withSecondaryGnb.masterEnb2.sctp "Number of Gap Missed Chunks in Last SACK 55:10.0.5.2:endtime" 17.075020200800004
scalar MultiCell_withSecondaryGnb.masterEnb2.sctp "Number of Gap Acked Chunks in Last SACK 55:192.168.7.1:count" 1
scalar MultiCell_withSecondaryGnb.masterEnb2.sctp "Number of Gap Acked Chunks in Last SACK 55:192.168.7.1:sum" 0
scalar MultiCell_withSecondaryGnb.masterEnb2.sctp "Number of Gap Acked Chunks in Last SACK 55:192.168.7.1:sumweights" 1
scalar MultiCell_withSecondaryGnb.masterEnb2.sctp "Number of Gap Acked Chunks in Last SACK 55:192.168.7.1:mean" 0
scalar MultiCell_withSecondaryGnb.masterEnb2.sctp "Number of Gap Acked Chunks in Last SACK 55:192.168.7.1:stddev" nan
scalar MultiCell_withSecondaryGnb.masterEnb2.sctp "Number of Gap Acked Chunks in Last SACK 55:192.168.7.1:min" 0
scalar MultiCell_withSecondaryGnb.masterEnb2.sctp "Number of Gap Acked Chunks in Last SACK 55:192.168.7.1:max" 0
scalar MultiCell_withSecondaryGnb.masterEnb2.sctp "Number of Gap Acked Chunks in Last SACK 55:192.168.7.1:starttime" 17.075020200800004
scalar MultiCell_withSecondaryGnb.masterEnb2.sctp "Number of Gap Acked Chunks in Last SACK 55:192.168.7.1:endtime" 17.075020200800004
scalar MultiCell_withSecondaryGnb.masterEnb2.sctp "Number of Non-Revokable Gap Acked Chunks in Last SACK 55:192.168.7.1:count" 1
scalar MultiCell_withSecondaryGnb.masterEnb2.sctp "Number of Non-Revokable Gap Acked Chunks in Last SACK 55:192.168.7.1:sum" 0
scalar MultiCell_withSecondaryGnb.masterEnb2.sctp "Number of Non-Revokable Gap Acked Chunks in Last SACK 55:192.168.7.1:sumweights" 1
scalar MultiCell_withSecondaryGnb.masterEnb2.sctp "Number of Non-Revokable Gap Acked Chunks in Last SACK 55:192.168.7.1:mean" 0
scalar MultiCell_withSecondaryGnb.masterEnb2.sctp "Number of Non-Revokable Gap Acked Chunks in Last SACK 55:192.168.7.1:stddev" nan
scalar MultiCell_withSecondaryGnb.masterEnb2.sctp "Number of Non-Revokable Gap Acked Chunks in Last SACK 55:192.168.7.1:min" 0
scalar MultiCell_withSecondaryGnb.masterEnb2.sctp "Number of Non-Revokable Gap Acked Chunks in Last SACK 55:192.168.7.1:max" 0
scalar MultiCell_withSecondaryGnb.masterEnb2.sctp "Number of Non-Revokable Gap Acked Chunks in Last SACK 55:192.168.7.1:starttime" 17.075020200800004
scalar MultiCell_withSecondaryGnb.masterEnb2.sctp "Number of Non-Revokable Gap Acked Chunks in Last SACK 55:192.168.7.1:endtime" 17.075020200800004
scalar MultiCell_withSecondaryGnb.masterEnb2.sctp "Number of Gap Missed Chunks in Last SACK 55:192.168.7.1:count" 1
scalar MultiCell_withSecondaryGnb.masterEnb2.sctp "Number of Gap Missed Chunks in Last SACK 55:192.168.7.1:sum" 0
scalar MultiCell_withSecondaryGnb.masterEnb2.sctp "Number of Gap Missed Chunks in Last SACK 55:192.168.7.1:sumweights" 1
scalar MultiCell_withSecondaryGnb.masterEnb2.sctp "Number of Gap Missed Chunks in Last SACK 55:192.168.7.1:mean" 0
scalar MultiCell_withSecondaryGnb.masterEnb2.sctp "Number of Gap Missed Chunks in Last SACK 55:192.168.7.1:stddev" nan
scalar MultiCell_withSecondaryGnb.masterEnb2.sctp "Number of Gap Missed Chunks in Last SACK 55:192.168.7.1:min" 0
scalar MultiCell_withSecondaryGnb.masterEnb2.sctp "Number of Gap Missed Chunks in Last SACK 55:192.168.7.1:max" 0
scalar MultiCell_withSecondaryGnb.masterEnb2.sctp "Number of Gap Missed Chunks in Last SACK 55:192.168.7.1:starttime" 17.075020200800004
scalar MultiCell_withSecondaryGnb.masterEnb2.sctp "Number of Gap Missed Chunks in Last SACK 55:192.168.7.1:endtime" 17.075020200800004
scalar MultiCell_withSecondaryGnb.masterEnb2.sctp "Number of Gap Acked Chunks in Last SACK 55:192.168.8.1:count" 1
scalar MultiCell_withSecondaryGnb.masterEnb2.sctp "Number of Gap Acked Chunks in Last SACK 55:192.168.8.1:sum" 0
scalar MultiCell_withSecondaryGnb.masterEnb2.sctp "Number of Gap Acked Chunks in Last SACK 55:192.168.8.1:sumweights" 1
scalar MultiCell_withSecondaryGnb.masterEnb2.sctp "Number of Gap Acked Chunks in Last SACK 55:192.168.8.1:mean" 0
scalar MultiCell_withSecondaryGnb.masterEnb2.sctp "Number of Gap Acked Chunks in Last SACK 55:192.168.8.1:stddev" nan
scalar MultiCell_withSecondaryGnb.masterEnb2.sctp "Number of Gap Acked Chunks in Last SACK 55:192.168.8.1:min" 0
scalar MultiCell_withSecondaryGnb.masterEnb2.sctp "Number of Gap Acked Chunks in Last SACK 55:192.168.8.1:max" 0
scalar MultiCell_withSecondaryGnb.masterEnb2.sctp "Number of Gap Acked Chunks in Last SACK 55:192.168.8.1:starttime" 17.075020200800004
scalar MultiCell_withSecondaryGnb.masterEnb2.sctp "Number of Gap Acked Chunks in Last SACK 55:192.168.8.1:endtime" 17.075020200800004
scalar MultiCell_withSecondaryGnb.masterEnb2.sctp "Number of Non-Revokable Gap Acked Chunks in Last SACK 55:192.168.8.1:count" 1
scalar MultiCell_withSecondaryGnb.masterEnb2.sctp "Number of Non-Revokable Gap Acked Chunks in Last SACK 55:192.168.8.1:sum" 0
scalar MultiCell_withSecondaryGnb.masterEnb2.sctp "Number of Non-Revokable Gap Acked Chunks in Last SACK 55:192.168.8.1:sumweights" 1
scalar MultiCell_withSecondaryGnb.masterEnb2.sctp "Number of Non-Revokable Gap Acked Chunks in Last SACK 55:192.168.8.1:mean" 0
scalar MultiCell_withSecondaryGnb.masterEnb2.sctp "Number of Non-Revokable Gap Acked Chunks in Last SACK 55:192.168.8.1:stddev" nan
scalar MultiCell_withSecondaryGnb.masterEnb2.sctp "Number of Non-Revokable Gap Acked Chunks in Last SACK 55:192.168.8.1:min" 0
scalar MultiCell_withSecondaryGnb.masterEnb2.sctp "Number of Non-Revokable Gap Acked Chunks in Last SACK 55:192.168.8.1:max" 0
scalar MultiCell_withSecondaryGnb.masterEnb2.sctp "Number of Non-Revokable Gap Acked Chunks in Last SACK 55:192.168.8.1:starttime" 17.075020200800004
scalar MultiCell_withSecondaryGnb.masterEnb2.sctp "Number of Non-Revokable Gap Acked Chunks in Last SACK 55:192.168.8.1:endtime" 17.075020200800004
scalar MultiCell_withSecondaryGnb.masterEnb2.sctp "Number of Gap Missed Chunks in Last SACK 55:192.168.8.1:count" 1
scalar MultiCell_withSecondaryGnb.masterEnb2.sctp "Number of Gap Missed Chunks in Last SACK 55:192.168.8.1:sum" 0
scalar MultiCell_withSecondaryGnb.masterEnb2.sctp "Number of Gap Missed Chunks in Last SACK 55:192.168.8.1:sumweights" 1
scalar MultiCell_withSecondaryGnb.masterEnb2.sctp "Number of Gap Missed Chunks in Last SACK 55:192.168.8.1:mean" 0
scalar MultiCell_withSecondaryGnb.masterEnb2.sctp "Number of Gap Missed Chunks in Last SACK 55:192.168.8.1:stddev" nan
scalar MultiCell_withSecondaryGnb.masterEnb2.sctp "Number of Gap Missed Chunks in Last SACK 55:192.168.8.1:min" 0
scalar MultiCell_withSecondaryGnb.masterEnb2.sctp "Number of Gap Missed Chunks in Last SACK 55:192.168.8.1:max" 0
scalar MultiCell_withSecondaryGnb.masterEnb2.sctp "Number of Gap Missed Chunks in Last SACK 55:192.168.8.1:starttime" 17.075020200800004
scalar MultiCell_withSecondaryGnb.masterEnb2.sctp "Number of Gap Missed Chunks in Last SACK 55:192.168.8.1:endtime" 17.075020200800004
scalar MultiCell_withSecondaryGnb.masterEnb2.sctp "Arwnd in Last SACK 52:count" 1
scalar MultiCell_withSecondaryGnb.masterEnb2.sctp "Arwnd in Last SACK 52:sum" 65520
scalar MultiCell_withSecondaryGnb.masterEnb2.sctp "Arwnd in Last SACK 52:sumweights" 1
scalar MultiCell_withSecondaryGnb.masterEnb2.sctp "Arwnd in Last SACK 52:mean" 65520
scalar MultiCell_withSecondaryGnb.masterEnb2.sctp "Arwnd in Last SACK 52:stddev" nan
scalar MultiCell_withSecondaryGnb.masterEnb2.sctp "Arwnd in Last SACK 52:min" 65520
scalar MultiCell_withSecondaryGnb.masterEnb2.sctp "Arwnd in Last SACK 52:max" 65520
scalar MultiCell_withSecondaryGnb.masterEnb2.sctp "Arwnd in Last SACK 52:starttime" 17.075020200800004
scalar MultiCell_withSecondaryGnb.masterEnb2.sctp "Arwnd in Last SACK 52:endtime" 17.075020200800004
scalar MultiCell_withSecondaryGnb.masterEnb2.sctp "TSN PseudoCumAck 55:10.0.5.2:count" 1
scalar MultiCell_withSecondaryGnb.masterEnb2.sctp "TSN PseudoCumAck 55:10.0.5.2:sum" 0
scalar MultiCell_withSecondaryGnb.masterEnb2.sctp "TSN PseudoCumAck 55:10.0.5.2:sumweights" 1
scalar MultiCell_withSecondaryGnb.masterEnb2.sctp "TSN PseudoCumAck 55:10.0.5.2:mean" 0
scalar MultiCell_withSecondaryGnb.masterEnb2.sctp "TSN PseudoCumAck 55:10.0.5.2:stddev" nan
scalar MultiCell_withSecondaryGnb.masterEnb2.sctp "TSN PseudoCumAck 55:10.0.5.2:min" 0
scalar MultiCell_withSecondaryGnb.masterEnb2.sctp "TSN PseudoCumAck 55:10.0.5.2:max" 0
scalar MultiCell_withSecondaryGnb.masterEnb2.sctp "TSN PseudoCumAck 55:10.0.5.2:starttime" 17.075020200800004
scalar MultiCell_withSecondaryGnb.masterEnb2.sctp "TSN PseudoCumAck 55:10.0.5.2:endtime" 17.075020200800004
scalar MultiCell_withSecondaryGnb.masterEnb2.sctp "TSN RTXPseudoCumAck 55:10.0.5.2:count" 1
scalar MultiCell_withSecondaryGnb.masterEnb2.sctp "TSN RTXPseudoCumAck 55:10.0.5.2:sum" 0
scalar MultiCell_withSecondaryGnb.masterEnb2.sctp "TSN RTXPseudoCumAck 55:10.0.5.2:sumweights" 1
scalar MultiCell_withSecondaryGnb.masterEnb2.sctp "TSN RTXPseudoCumAck 55:10.0.5.2:mean" 0
scalar MultiCell_withSecondaryGnb.masterEnb2.sctp "TSN RTXPseudoCumAck 55:10.0.5.2:stddev" nan
scalar MultiCell_withSecondaryGnb.masterEnb2.sctp "TSN RTXPseudoCumAck 55:10.0.5.2:min" 0
scalar MultiCell_withSecondaryGnb.masterEnb2.sctp "TSN RTXPseudoCumAck 55:10.0.5.2:max" 0
scalar MultiCell_withSecondaryGnb.masterEnb2.sctp "TSN RTXPseudoCumAck 55:10.0.5.2:starttime" 17.075020200800004
scalar MultiCell_withSecondaryGnb.masterEnb2.sctp "TSN RTXPseudoCumAck 55:10.0.5.2:endtime" 17.075020200800004
scalar MultiCell_withSecondaryGnb.masterEnb2.sctp "Partial Bytes Acked 55:10.0.5.2:count" 1
scalar MultiCell_withSecondaryGnb.masterEnb2.sctp "Partial Bytes Acked 55:10.0.5.2:sum" 0
scalar MultiCell_withSecondaryGnb.masterEnb2.sctp "Partial Bytes Acked 55:10.0.5.2:sumweights" 1
scalar MultiCell_withSecondaryGnb.masterEnb2.sctp "Partial Bytes Acked 55:10.0.5.2:mean" 0
scalar MultiCell_withSecondaryGnb.masterEnb2.sctp "Partial Bytes Acked 55:10.0.5.2:stddev" nan
scalar MultiCell_withSecondaryGnb.masterEnb2.sctp "Partial Bytes Acked 55:10.0.5.2:min" 0
scalar MultiCell_withSecondaryGnb.masterEnb2.sctp "Partial Bytes Acked 55:10.0.5.2:max" 0
scalar MultiCell_withSecondaryGnb.masterEnb2.sctp "Partial Bytes Acked 55:10.0.5.2:starttime" 17.075020200800004
scalar MultiCell_withSecondaryGnb.masterEnb2.sctp "Partial Bytes Acked 55:10.0.5.2:endtime" 17.075020200800004

