version 3
run DoubleConnection-CBR-DL-0-20260709-22:38:13-679222
attr configname DoubleConnection-CBR-DL
attr datetime 20260709-22:38:13
attr datetimef 20260709-223813
attr experiment DoubleConnection-CBR-DL
attr inifile omnetpp.ini
attr iterationvars ""
attr iterationvarsd ""
attr iterationvarsf ""
attr measurement ""
attr network simu5g.simulations.nr.networks.MultiCell_withSecondaryGnb
attr processid 679222
attr repetition 0
attr replication #0
attr resultdir results
attr runnumber 0
attr seedset 0
config **.param-recording false
config image-path /home/andras/projects/Simu5G-fork/simu5g-fork/images
config output-scalar-file results/omnetpp.ini-DoubleConnection-CBR-DL-#0.sca
config output-scalar-precision 17
config output-vector-file results/omnetpp.ini-DoubleConnection-CBR-DL-#0.vec
config output-vector-precision 17
config record-eventlog false
config sim-time-limit 40s
config extends DualConnectivity
config description "two CBR downlink connections - one via eNodeB, one via gNodeB"
config *.ue[*].numApps 2
config *.server.numApps 2
config *.ue[*].app[*].typename CbrReceiver
config *.ue[*].app[*].localPort 3000+ancestorIndex(0)
config *.server.app[*].typename CbrSender
config *.server.app[*].destAddress "\"ue[0]\""
config *.server.app[*].localPort 3088+ancestorIndex(0)
config *.server.app[*].destPort 3000+ancestorIndex(0)
config *.server.app[*].packetSize 1000B
config *.server.app[*].samplingTime 0.05s
config *.server.app[*].startTime "uniform(0.02s, 0.05s)"
config *.server.app[*].finishTime 39.9s
config *.server.app[0].tos -1
config *.server.app[1].tos 10
config network simu5g.simulations.nr.networks.MultiCell_withSecondaryGnb
config description "Base configuration, do not run this config!"
config *.masterEnb1.mobility.initialX 300m
config *.masterEnb1.mobility.initialY 300m
config *.secondaryGnb1.mobility.initialX 500m
config *.secondaryGnb1.mobility.initialY 400m
config *.masterEnb2.mobility.initialX 700m
config *.masterEnb2.mobility.initialY 300m
config *.secondaryGnb2.mobility.initialX 800m
config *.secondaryGnb2.mobility.initialY 400m
config *.masterEnb*.cellularNic.typename LteNicEnbD2D
config *.masterEnb*.cellularNic.pdcp.typename NrPdcpEnb
config *.secondaryGnb1.masterId 1
config *.secondaryGnb2.masterId 3
config **.dualConnectivityEnabled true
config **.downlinkInterference true
config **.uplinkInterference true
config *.masterEnb*.cellularNic.phy.eNodeBTxPower 40dBm
config *.secondaryGnb*.cellularNic.phy.eNodeBTxPower 20dBm
config **.minRssi 1dB
config *.carrierAggregation.numComponentCarriers 2
config *.carrierAggregation.componentCarrier[0].carrierFrequency 2GHz
config *.carrierAggregation.componentCarrier[0].numBands 50
config *.carrierAggregation.componentCarrier[0].numerologyIndex 0
config *.carrierAggregation.componentCarrier[1].carrierFrequency 4GHz
config *.carrierAggregation.componentCarrier[1].numBands 50
config *.carrierAggregation.componentCarrier[1].numerologyIndex 0
config *.masterEnb*.cellularNic.numCarriers 1
config *.masterEnb*.cellularNic.channelModel[0].componentCarrierModule "\"carrierAggregation.componentCarrier[0]\""
config *.secondaryGnb*.cellularNic.numCarriers 1
config *.secondaryGnb*.cellularNic.channelModel[0].componentCarrierModule "\"carrierAggregation.componentCarrier[1]\""
config *.ue[*].cellularNic.numCarriers 1
config *.ue[*].cellularNic.numNrCarriers 1
config *.ue[*].cellularNic.channelModel[0].componentCarrierModule "\"carrierAggregation.componentCarrier[0]\""
config *.ue[*].cellularNic.nrChannelModel[0].componentCarrierModule "\"carrierAggregation.componentCarrier[1]\""
config *.masterEnb*.numX2Apps 2
config *.secondaryGnb*.numX2Apps 1
config *.*.x2App[*].server.localPort "5000 + ancestorIndex(1)"
config *.masterEnb1.x2App[0].client.connectAddress "\"secondaryGnb1%x2ppp0\""
config *.masterEnb2.x2App[0].client.connectAddress "\"secondaryGnb2%x2ppp0\""
config *.secondaryGnb1.x2App[0].client.connectAddress "\"masterEnb1%x2ppp0\""
config *.secondaryGnb2.x2App[0].client.connectAddress "\"masterEnb2%x2ppp0\""
config *.masterEnb1.x2App[1].client.connectAddress "\"masterEnb2%x2ppp1\""
config *.masterEnb2.x2App[1].client.connectAddress "\"masterEnb1%x2ppp1\""
config *.numUe 1
config **.dynamicCellAssociation true
config **.enableHandover true
config *.ue[*].macCellId 1
config *.ue[*].masterId 1
config *.ue[*].nrMacCellId 2
config *.ue[*].nrMasterId 2
config *.ue[*].mobility.typename LinearMobility
config *.ue[*].mobility.initialX 300m
config *.ue[*].mobility.initialY 350m
config *.ue[*].mobility.speed 13.9mps
config *.ue[*].mobility.initialMovementHeading 0deg
config sim-time-limit 40s
config warmup-period 1s
config seed-set 0
config debug-on-errors false
config output-scalar-file results/DoubleConnection-CBR-DL/-0.sca
config output-vector-file results/DoubleConnection-CBR-DL/-0.vec
config **.vector-recording true
config **.sctp.**.scalar-recording false
config **.sctp.**.vector-recording false
config **.routingRecorder.enabled false
config **.mobility.constraintAreaMaxX 1000m
config **.mobility.constraintAreaMaxY 700m
config **.mobility.constraintAreaMinX 0m
config **.mobility.constraintAreaMinY 0m
config **.mobility.constraintAreaMinZ 0m
config **.mobility.constraintAreaMaxZ 0m
config **.mobility.initFromDisplayString false
config *.configurator.config "xmldoc(\"./demo.xml\")"
config **.sctp.nagleEnabled false
config **.sctp.enableHeartbeats false
config **.fading false
config **.shadowing false
config **.targetBler 0.01
config **.blerShift 5

scalar MultiCell_withSecondaryGnb.masterEnb1.x2App[0].client ums 1452
scalar MultiCell_withSecondaryGnb.masterEnb1.x2App[1].client ums 1452
scalar MultiCell_withSecondaryGnb.secondaryGnb1.x2App[0].client ums 1452
scalar MultiCell_withSecondaryGnb.masterEnb2.x2App[0].client ums 1452
scalar MultiCell_withSecondaryGnb.masterEnb2.x2App[1].client ums 1452
scalar MultiCell_withSecondaryGnb.secondaryGnb2.x2App[0].client ums 1452
scalar MultiCell_withSecondaryGnb.server.lo[0].lo rcvdPkFromHl:count 0
scalar MultiCell_withSecondaryGnb.server.lo[0].lo rcvdPkFromHl:sum(packetBytes) 0
scalar MultiCell_withSecondaryGnb.server.lo[0].lo passedUpPk:count 0
scalar MultiCell_withSecondaryGnb.server.lo[0].lo passedUpPk:sum(packetBytes) 0
scalar MultiCell_withSecondaryGnb.server.lo[0] packetDropInterfaceDown:count 0
scalar MultiCell_withSecondaryGnb.server.lo[0] packetDropInterfaceDown:sum(packetBytes) 0
scalar MultiCell_withSecondaryGnb.server.lo[0] packetDropNoCarrier:count 0
scalar MultiCell_withSecondaryGnb.server.lo[0] packetDropNoCarrier:sum(packetBytes) 0
scalar MultiCell_withSecondaryGnb.server.ppp[0].queue queueLength:last 0
scalar MultiCell_withSecondaryGnb.server.ppp[0].queue queueLength:max 0
scalar MultiCell_withSecondaryGnb.server.ppp[0].queue queueLength:timeavg 0
scalar MultiCell_withSecondaryGnb.server.ppp[0].queue queueBitLength:last 0
scalar MultiCell_withSecondaryGnb.server.ppp[0].queue queueBitLength:max 0
scalar MultiCell_withSecondaryGnb.server.ppp[0].queue queueBitLength:timeavg 0
scalar MultiCell_withSecondaryGnb.server.ppp[0].queue outgoingPackets:count 1556
scalar MultiCell_withSecondaryGnb.server.ppp[0].queue outgoingPacketLengths:sum 12796544
scalar MultiCell_withSecondaryGnb.server.ppp[0].queue incomingPackets:count 1556
scalar MultiCell_withSecondaryGnb.server.ppp[0].queue incomingPacketLengths:sum 12796544
scalar MultiCell_withSecondaryGnb.server.ppp[0].queue droppedPacketsQueueOverflow:count 0
scalar MultiCell_withSecondaryGnb.server.ppp[0].queue droppedPacketLengthsQueueOverflow:sum 0
scalar MultiCell_withSecondaryGnb.server.ppp[0].ppp transmissionState:timeavg 3.3061107982858401e-05
scalar MultiCell_withSecondaryGnb.server.ppp[0].ppp rxPkOk:count 0
scalar MultiCell_withSecondaryGnb.server.ppp[0].ppp rxPkOk:sum(packetBytes) 0
scalar MultiCell_withSecondaryGnb.server.ppp[0].ppp txPk:count 1556
scalar MultiCell_withSecondaryGnb.server.ppp[0].ppp txPk:sum(packetBytes) 1610460
scalar MultiCell_withSecondaryGnb.server.ppp[0].ppp rcvdPkFromHl:count 1556
scalar MultiCell_withSecondaryGnb.server.ppp[0].ppp rcvdPkFromHl:sum(packetBytes) 1599568
scalar MultiCell_withSecondaryGnb.server.ppp[0].ppp passedUpPk:count 0
scalar MultiCell_withSecondaryGnb.server.ppp[0].ppp passedUpPk:sum(packetBytes) 0
scalar MultiCell_withSecondaryGnb.server.ppp[0].ppp packetDropIncorrectlyReceived:count 0
scalar MultiCell_withSecondaryGnb.server.ppp[0].ppp packetDropIncorrectlyReceived:sum(packetBytes) 0
scalar MultiCell_withSecondaryGnb.server.ppp[0].ppp packetDropInterfaceDown:count 0
scalar MultiCell_withSecondaryGnb.server.ppp[0].ppp packetDropInterfaceDown:sum(packetBytes) 0
scalar MultiCell_withSecondaryGnb.server.ppp[0] packetDropInterfaceDown:count 0
scalar MultiCell_withSecondaryGnb.server.ppp[0] packetDropInterfaceDown:sum(packetBytes) 0
scalar MultiCell_withSecondaryGnb.server.ppp[0] packetDropNoCarrier:count 0
scalar MultiCell_withSecondaryGnb.server.ppp[0] packetDropNoCarrier:sum(packetBytes) 0
scalar MultiCell_withSecondaryGnb.server.ipv4.ip packetDropAddressResolutionFailed:count 0
scalar MultiCell_withSecondaryGnb.server.ipv4.ip packetDropAddressResolutionFailed:sum(packetBytes) 0
scalar MultiCell_withSecondaryGnb.server.ipv4.ip packetDropHopLimitReached:count 0
scalar MultiCell_withSecondaryGnb.server.ipv4.ip packetDropHopLimitReached:sum(packetBytes) 0
scalar MultiCell_withSecondaryGnb.server.ipv4.ip packetDropForwardingDisabled:count 0
scalar MultiCell_withSecondaryGnb.server.ipv4.ip packetDropForwardingDisabled:sum(packetBytes) 0
scalar MultiCell_withSecondaryGnb.server.ipv4.ip packetDropNoInterfaceFound:count 0
scalar MultiCell_withSecondaryGnb.server.ipv4.ip packetDropNoInterfaceFound:sum(packetBytes) 0
scalar MultiCell_withSecondaryGnb.server.ipv4.ip packetDropNoRouteFound:count 0
scalar MultiCell_withSecondaryGnb.server.ipv4.ip packetDropNoRouteFound:sum(packetBytes) 0
scalar MultiCell_withSecondaryGnb.server.ipv4.ip packetDropUndefined:count 0
scalar MultiCell_withSecondaryGnb.server.ipv4.ip packetDropUndefined:sum(packetBytes) 0
scalar MultiCell_withSecondaryGnb.server.ipv4.arp arpResolutionFailed:count 0
scalar MultiCell_withSecondaryGnb.server.ipv4.arp arpResolutionCompleted:count 0
scalar MultiCell_withSecondaryGnb.server.ipv4.arp arpResolutionInitiated:count 0
scalar MultiCell_withSecondaryGnb.server.ipv4.arp arpReplySent:count 0
scalar MultiCell_withSecondaryGnb.server.ipv4.arp arpReplySent:sum(packetBytes) 0
scalar MultiCell_withSecondaryGnb.server.ipv4.arp arpRequestSent:count 0
scalar MultiCell_withSecondaryGnb.server.ipv4.arp arpRequestSent:sum(packetBytes) 0
scalar MultiCell_withSecondaryGnb.server.udp packetReceived:count 0
scalar MultiCell_withSecondaryGnb.server.udp packetReceived:sum(packetBytes) 0
scalar MultiCell_withSecondaryGnb.server.udp packetSent:count 1556
scalar MultiCell_withSecondaryGnb.server.udp packetSent:sum(packetBytes) 1568448
scalar MultiCell_withSecondaryGnb.server.udp passedUpPk:count 0
scalar MultiCell_withSecondaryGnb.server.udp droppedPkWrongPort:count 0
scalar MultiCell_withSecondaryGnb.server.udp droppedPkBadChecksum:count 0
scalar MultiCell_withSecondaryGnb.server.app[0] cbrGeneratedBytes:timeavg 999.99999999999977
scalar MultiCell_withSecondaryGnb.server.app[0] cbrGeneratedBytes:mean 1000
scalar MultiCell_withSecondaryGnb.server.app[0] cbrGeneratedBytes:last(sumPerDuration) 20002.907592706561
scalar MultiCell_withSecondaryGnb.server.app[0] cbrGeneratedBytes:sum 778000
scalar MultiCell_withSecondaryGnb.server.app[0] cbrGeneratedThroughput:timeavg -nan
scalar MultiCell_withSecondaryGnb.server.app[0] cbrGeneratedThroughput:mean 19948.717948717949
scalar MultiCell_withSecondaryGnb.server.app[0] cbrGeneratedThroughput:last(sumPerDuration) 511.50558842866536
scalar MultiCell_withSecondaryGnb.server.app[0] cbrGeneratedThroughput:sum 19948.717948717949
scalar MultiCell_withSecondaryGnb.server.app[1] cbrGeneratedBytes:timeavg 999.99999999999989
scalar MultiCell_withSecondaryGnb.server.app[1] cbrGeneratedBytes:mean 1000
scalar MultiCell_withSecondaryGnb.server.app[1] cbrGeneratedBytes:last(sumPerDuration) 20009.924141720283
scalar MultiCell_withSecondaryGnb.server.app[1] cbrGeneratedBytes:sum 778000
scalar MultiCell_withSecondaryGnb.server.app[1] cbrGeneratedThroughput:timeavg -nan
scalar MultiCell_withSecondaryGnb.server.app[1] cbrGeneratedThroughput:mean 19948.717948717949
scalar MultiCell_withSecondaryGnb.server.app[1] cbrGeneratedThroughput:last(sumPerDuration) 511.50558842866536
scalar MultiCell_withSecondaryGnb.server.app[1] cbrGeneratedThroughput:sum 19948.717948717949
scalar MultiCell_withSecondaryGnb.router.lo[0].lo rcvdPkFromHl:count 0
scalar MultiCell_withSecondaryGnb.router.lo[0].lo rcvdPkFromHl:sum(packetBytes) 0
scalar MultiCell_withSecondaryGnb.router.lo[0].lo passedUpPk:count 0
scalar MultiCell_withSecondaryGnb.router.lo[0].lo passedUpPk:sum(packetBytes) 0
scalar MultiCell_withSecondaryGnb.router.lo[0] packetDropInterfaceDown:count 0
scalar MultiCell_withSecondaryGnb.router.lo[0] packetDropInterfaceDown:sum(packetBytes) 0
scalar MultiCell_withSecondaryGnb.router.lo[0] packetDropNoCarrier:count 0
scalar MultiCell_withSecondaryGnb.router.lo[0] packetDropNoCarrier:sum(packetBytes) 0
scalar MultiCell_withSecondaryGnb.router.ppp[0].queue queueLength:last 0
scalar MultiCell_withSecondaryGnb.router.ppp[0].queue queueLength:max 0
scalar MultiCell_withSecondaryGnb.router.ppp[0].queue queueLength:timeavg 0
scalar MultiCell_withSecondaryGnb.router.ppp[0].queue queueBitLength:last 0
scalar MultiCell_withSecondaryGnb.router.ppp[0].queue queueBitLength:max 0
scalar MultiCell_withSecondaryGnb.router.ppp[0].queue queueBitLength:timeavg 0
scalar MultiCell_withSecondaryGnb.router.ppp[0].queue outgoingPackets:count 0
scalar MultiCell_withSecondaryGnb.router.ppp[0].queue outgoingPacketLengths:sum 0
scalar MultiCell_withSecondaryGnb.router.ppp[0].queue incomingPackets:count 0
scalar MultiCell_withSecondaryGnb.router.ppp[0].queue incomingPacketLengths:sum 0
scalar MultiCell_withSecondaryGnb.router.ppp[0].queue droppedPacketsQueueOverflow:count 0
scalar MultiCell_withSecondaryGnb.router.ppp[0].queue droppedPacketLengthsQueueOverflow:sum 0
scalar MultiCell_withSecondaryGnb.router.ppp[0].ppp transmissionState:timeavg -nan
scalar MultiCell_withSecondaryGnb.router.ppp[0].ppp rxPkOk:count 1556
scalar MultiCell_withSecondaryGnb.router.ppp[0].ppp rxPkOk:sum(packetBytes) 1610460
scalar MultiCell_withSecondaryGnb.router.ppp[0].ppp txPk:count 0
scalar MultiCell_withSecondaryGnb.router.ppp[0].ppp txPk:sum(packetBytes) 0
scalar MultiCell_withSecondaryGnb.router.ppp[0].ppp rcvdPkFromHl:count 0
scalar MultiCell_withSecondaryGnb.router.ppp[0].ppp rcvdPkFromHl:sum(packetBytes) 0
scalar MultiCell_withSecondaryGnb.router.ppp[0].ppp passedUpPk:count 1556
scalar MultiCell_withSecondaryGnb.router.ppp[0].ppp passedUpPk:sum(packetBytes) 1599568
scalar MultiCell_withSecondaryGnb.router.ppp[0].ppp packetDropIncorrectlyReceived:count 0
scalar MultiCell_withSecondaryGnb.router.ppp[0].ppp packetDropIncorrectlyReceived:sum(packetBytes) 0
scalar MultiCell_withSecondaryGnb.router.ppp[0].ppp packetDropInterfaceDown:count 0
scalar MultiCell_withSecondaryGnb.router.ppp[0].ppp packetDropInterfaceDown:sum(packetBytes) 0
scalar MultiCell_withSecondaryGnb.router.ppp[0] packetDropInterfaceDown:count 0
scalar MultiCell_withSecondaryGnb.router.ppp[0] packetDropInterfaceDown:sum(packetBytes) 0
scalar MultiCell_withSecondaryGnb.router.ppp[0] packetDropNoCarrier:count 0
scalar MultiCell_withSecondaryGnb.router.ppp[0] packetDropNoCarrier:sum(packetBytes) 0
scalar MultiCell_withSecondaryGnb.router.ppp[1].queue queueLength:last 0
scalar MultiCell_withSecondaryGnb.router.ppp[1].queue queueLength:max 0
scalar MultiCell_withSecondaryGnb.router.ppp[1].queue queueLength:timeavg 0
scalar MultiCell_withSecondaryGnb.router.ppp[1].queue queueBitLength:last 0
scalar MultiCell_withSecondaryGnb.router.ppp[1].queue queueBitLength:max 0
scalar MultiCell_withSecondaryGnb.router.ppp[1].queue queueBitLength:timeavg 0
scalar MultiCell_withSecondaryGnb.router.ppp[1].queue outgoingPackets:count 1556
scalar MultiCell_withSecondaryGnb.router.ppp[1].queue outgoingPacketLengths:sum 12796544
scalar MultiCell_withSecondaryGnb.router.ppp[1].queue incomingPackets:count 1556
scalar MultiCell_withSecondaryGnb.router.ppp[1].queue incomingPacketLengths:sum 12796544
scalar MultiCell_withSecondaryGnb.router.ppp[1].queue droppedPacketsQueueOverflow:count 0
scalar MultiCell_withSecondaryGnb.router.ppp[1].queue droppedPacketLengthsQueueOverflow:sum 0
scalar MultiCell_withSecondaryGnb.router.ppp[1].ppp transmissionState:timeavg 3.3061108727743701e-05
scalar MultiCell_withSecondaryGnb.router.ppp[1].ppp rxPkOk:count 0
scalar MultiCell_withSecondaryGnb.router.ppp[1].ppp rxPkOk:sum(packetBytes) 0
scalar MultiCell_withSecondaryGnb.router.ppp[1].ppp txPk:count 1556
scalar MultiCell_withSecondaryGnb.router.ppp[1].ppp txPk:sum(packetBytes) 1610460
scalar MultiCell_withSecondaryGnb.router.ppp[1].ppp rcvdPkFromHl:count 1556
scalar MultiCell_withSecondaryGnb.router.ppp[1].ppp rcvdPkFromHl:sum(packetBytes) 1599568
scalar MultiCell_withSecondaryGnb.router.ppp[1].ppp passedUpPk:count 0
scalar MultiCell_withSecondaryGnb.router.ppp[1].ppp passedUpPk:sum(packetBytes) 0
scalar MultiCell_withSecondaryGnb.router.ppp[1].ppp packetDropIncorrectlyReceived:count 0
scalar MultiCell_withSecondaryGnb.router.ppp[1].ppp packetDropIncorrectlyReceived:sum(packetBytes) 0
scalar MultiCell_withSecondaryGnb.router.ppp[1].ppp packetDropInterfaceDown:count 0
scalar MultiCell_withSecondaryGnb.router.ppp[1].ppp packetDropInterfaceDown:sum(packetBytes) 0
scalar MultiCell_withSecondaryGnb.router.ppp[1] packetDropInterfaceDown:count 0
scalar MultiCell_withSecondaryGnb.router.ppp[1] packetDropInterfaceDown:sum(packetBytes) 0
scalar MultiCell_withSecondaryGnb.router.ppp[1] packetDropNoCarrier:count 0
scalar MultiCell_withSecondaryGnb.router.ppp[1] packetDropNoCarrier:sum(packetBytes) 0
scalar MultiCell_withSecondaryGnb.router.ipv4.ip packetDropAddressResolutionFailed:count 0
scalar MultiCell_withSecondaryGnb.router.ipv4.ip packetDropAddressResolutionFailed:sum(packetBytes) 0
scalar MultiCell_withSecondaryGnb.router.ipv4.ip packetDropHopLimitReached:count 0
scalar MultiCell_withSecondaryGnb.router.ipv4.ip packetDropHopLimitReached:sum(packetBytes) 0
scalar MultiCell_withSecondaryGnb.router.ipv4.ip packetDropForwardingDisabled:count 0
scalar MultiCell_withSecondaryGnb.router.ipv4.ip packetDropForwardingDisabled:sum(packetBytes) 0
scalar MultiCell_withSecondaryGnb.router.ipv4.ip packetDropNoInterfaceFound:count 0
scalar MultiCell_withSecondaryGnb.router.ipv4.ip packetDropNoInterfaceFound:sum(packetBytes) 0
scalar MultiCell_withSecondaryGnb.router.ipv4.ip packetDropNoRouteFound:count 0
scalar MultiCell_withSecondaryGnb.router.ipv4.ip packetDropNoRouteFound:sum(packetBytes) 0
scalar MultiCell_withSecondaryGnb.router.ipv4.ip packetDropUndefined:count 0
scalar MultiCell_withSecondaryGnb.router.ipv4.ip packetDropUndefined:sum(packetBytes) 0
scalar MultiCell_withSecondaryGnb.router.ipv4.arp arpResolutionFailed:count 0
scalar MultiCell_withSecondaryGnb.router.ipv4.arp arpResolutionCompleted:count 0
scalar MultiCell_withSecondaryGnb.router.ipv4.arp arpResolutionInitiated:count 0
scalar MultiCell_withSecondaryGnb.router.ipv4.arp arpReplySent:count 0
scalar MultiCell_withSecondaryGnb.router.ipv4.arp arpReplySent:sum(packetBytes) 0
scalar MultiCell_withSecondaryGnb.router.ipv4.arp arpRequestSent:count 0
scalar MultiCell_withSecondaryGnb.router.ipv4.arp arpRequestSent:sum(packetBytes) 0
scalar MultiCell_withSecondaryGnb.pgw.lo[0].lo rcvdPkFromHl:count 0
scalar MultiCell_withSecondaryGnb.pgw.lo[0].lo rcvdPkFromHl:sum(packetBytes) 0
scalar MultiCell_withSecondaryGnb.pgw.lo[0].lo passedUpPk:count 0
scalar MultiCell_withSecondaryGnb.pgw.lo[0].lo passedUpPk:sum(packetBytes) 0
scalar MultiCell_withSecondaryGnb.pgw.lo[0] packetDropInterfaceDown:count 0
scalar MultiCell_withSecondaryGnb.pgw.lo[0] packetDropInterfaceDown:sum(packetBytes) 0
scalar MultiCell_withSecondaryGnb.pgw.lo[0] packetDropNoCarrier:count 0
scalar MultiCell_withSecondaryGnb.pgw.lo[0] packetDropNoCarrier:sum(packetBytes) 0
scalar MultiCell_withSecondaryGnb.pgw.ppp[0].queue queueLength:last 0
scalar MultiCell_withSecondaryGnb.pgw.ppp[0].queue queueLength:max 0
scalar MultiCell_withSecondaryGnb.pgw.ppp[0].queue queueLength:timeavg 0
scalar MultiCell_withSecondaryGnb.pgw.ppp[0].queue queueBitLength:last 0
scalar MultiCell_withSecondaryGnb.pgw.ppp[0].queue queueBitLength:max 0
scalar MultiCell_withSecondaryGnb.pgw.ppp[0].queue queueBitLength:timeavg 0
scalar MultiCell_withSecondaryGnb.pgw.ppp[0].queue outgoingPackets:count 642
scalar MultiCell_withSecondaryGnb.pgw.ppp[0].queue outgoingPacketLengths:sum 5464704
scalar MultiCell_withSecondaryGnb.pgw.ppp[0].queue incomingPackets:count 642
scalar MultiCell_withSecondaryGnb.pgw.ppp[0].queue incomingPacketLengths:sum 5464704
scalar MultiCell_withSecondaryGnb.pgw.ppp[0].queue droppedPacketsQueueOverflow:count 0
scalar MultiCell_withSecondaryGnb.pgw.ppp[0].queue droppedPacketLengthsQueueOverflow:sum 0
scalar MultiCell_withSecondaryGnb.pgw.ppp[0].ppp transmissionState:timeavg 1.4115360687883208e-05
scalar MultiCell_withSecondaryGnb.pgw.ppp[0].ppp rxPkOk:count 0
scalar MultiCell_withSecondaryGnb.pgw.ppp[0].ppp rxPkOk:sum(packetBytes) 0
scalar MultiCell_withSecondaryGnb.pgw.ppp[0].ppp txPk:count 642
scalar MultiCell_withSecondaryGnb.pgw.ppp[0].ppp txPk:sum(packetBytes) 687582
scalar MultiCell_withSecondaryGnb.pgw.ppp[0].ppp rcvdPkFromHl:count 642
scalar MultiCell_withSecondaryGnb.pgw.ppp[0].ppp rcvdPkFromHl:sum(packetBytes) 683088
scalar MultiCell_withSecondaryGnb.pgw.ppp[0].ppp passedUpPk:count 0
scalar MultiCell_withSecondaryGnb.pgw.ppp[0].ppp passedUpPk:sum(packetBytes) 0
scalar MultiCell_withSecondaryGnb.pgw.ppp[0].ppp packetDropIncorrectlyReceived:count 0
scalar MultiCell_withSecondaryGnb.pgw.ppp[0].ppp packetDropIncorrectlyReceived:sum(packetBytes) 0
scalar MultiCell_withSecondaryGnb.pgw.ppp[0].ppp packetDropInterfaceDown:count 0
scalar MultiCell_withSecondaryGnb.pgw.ppp[0].ppp packetDropInterfaceDown:sum(packetBytes) 0
scalar MultiCell_withSecondaryGnb.pgw.ppp[0] packetDropInterfaceDown:count 0
scalar MultiCell_withSecondaryGnb.pgw.ppp[0] packetDropInterfaceDown:sum(packetBytes) 0
scalar MultiCell_withSecondaryGnb.pgw.ppp[0] packetDropNoCarrier:count 0
scalar MultiCell_withSecondaryGnb.pgw.ppp[0] packetDropNoCarrier:sum(packetBytes) 0
scalar MultiCell_withSecondaryGnb.pgw.ppp[1].queue queueLength:last 0
scalar MultiCell_withSecondaryGnb.pgw.ppp[1].queue queueLength:max 0
scalar MultiCell_withSecondaryGnb.pgw.ppp[1].queue queueLength:timeavg 0
scalar MultiCell_withSecondaryGnb.pgw.ppp[1].queue queueBitLength:last 0
scalar MultiCell_withSecondaryGnb.pgw.ppp[1].queue queueBitLength:max 0
scalar MultiCell_withSecondaryGnb.pgw.ppp[1].queue queueBitLength:timeavg 0
scalar MultiCell_withSecondaryGnb.pgw.ppp[1].queue outgoingPackets:count 914
scalar MultiCell_withSecondaryGnb.pgw.ppp[1].queue outgoingPacketLengths:sum 7779968
scalar MultiCell_withSecondaryGnb.pgw.ppp[1].queue incomingPackets:count 914
scalar MultiCell_withSecondaryGnb.pgw.ppp[1].queue incomingPacketLengths:sum 7779968
scalar MultiCell_withSecondaryGnb.pgw.ppp[1].queue droppedPacketsQueueOverflow:count 0
scalar MultiCell_withSecondaryGnb.pgw.ppp[1].queue droppedPacketLengthsQueueOverflow:sum 0
scalar MultiCell_withSecondaryGnb.pgw.ppp[1].ppp transmissionState:timeavg 3.4168386608545364e-05
scalar MultiCell_withSecondaryGnb.pgw.ppp[1].ppp rxPkOk:count 0
scalar MultiCell_withSecondaryGnb.pgw.ppp[1].ppp rxPkOk:sum(packetBytes) 0
scalar MultiCell_withSecondaryGnb.pgw.ppp[1].ppp txPk:count 914
scalar MultiCell_withSecondaryGnb.pgw.ppp[1].ppp txPk:sum(packetBytes) 978894
scalar MultiCell_withSecondaryGnb.pgw.ppp[1].ppp rcvdPkFromHl:count 914
scalar MultiCell_withSecondaryGnb.pgw.ppp[1].ppp rcvdPkFromHl:sum(packetBytes) 972496
scalar MultiCell_withSecondaryGnb.pgw.ppp[1].ppp passedUpPk:count 0
scalar MultiCell_withSecondaryGnb.pgw.ppp[1].ppp passedUpPk:sum(packetBytes) 0
scalar MultiCell_withSecondaryGnb.pgw.ppp[1].ppp packetDropIncorrectlyReceived:count 0
scalar MultiCell_withSecondaryGnb.pgw.ppp[1].ppp packetDropIncorrectlyReceived:sum(packetBytes) 0
scalar MultiCell_withSecondaryGnb.pgw.ppp[1].ppp packetDropInterfaceDown:count 0
scalar MultiCell_withSecondaryGnb.pgw.ppp[1].ppp packetDropInterfaceDown:sum(packetBytes) 0
scalar MultiCell_withSecondaryGnb.pgw.ppp[1] packetDropInterfaceDown:count 0
scalar MultiCell_withSecondaryGnb.pgw.ppp[1] packetDropInterfaceDown:sum(packetBytes) 0
scalar MultiCell_withSecondaryGnb.pgw.ppp[1] packetDropNoCarrier:count 0
scalar MultiCell_withSecondaryGnb.pgw.ppp[1] packetDropNoCarrier:sum(packetBytes) 0
scalar MultiCell_withSecondaryGnb.pgw.ipv4.ip packetDropAddressResolutionFailed:count 0
scalar MultiCell_withSecondaryGnb.pgw.ipv4.ip packetDropAddressResolutionFailed:sum(packetBytes) 0
scalar MultiCell_withSecondaryGnb.pgw.ipv4.ip packetDropHopLimitReached:count 0
scalar MultiCell_withSecondaryGnb.pgw.ipv4.ip packetDropHopLimitReached:sum(packetBytes) 0
scalar MultiCell_withSecondaryGnb.pgw.ipv4.ip packetDropForwardingDisabled:count 0
scalar MultiCell_withSecondaryGnb.pgw.ipv4.ip packetDropForwardingDisabled:sum(packetBytes) 0
scalar MultiCell_withSecondaryGnb.pgw.ipv4.ip packetDropNoInterfaceFound:count 0
scalar MultiCell_withSecondaryGnb.pgw.ipv4.ip packetDropNoInterfaceFound:sum(packetBytes) 0
scalar MultiCell_withSecondaryGnb.pgw.ipv4.ip packetDropNoRouteFound:count 0
scalar MultiCell_withSecondaryGnb.pgw.ipv4.ip packetDropNoRouteFound:sum(packetBytes) 0
scalar MultiCell_withSecondaryGnb.pgw.ipv4.ip packetDropUndefined:count 0
scalar MultiCell_withSecondaryGnb.pgw.ipv4.ip packetDropUndefined:sum(packetBytes) 0
scalar MultiCell_withSecondaryGnb.pgw.ipv4.arp arpResolutionFailed:count 0
scalar MultiCell_withSecondaryGnb.pgw.ipv4.arp arpResolutionCompleted:count 0
scalar MultiCell_withSecondaryGnb.pgw.ipv4.arp arpResolutionInitiated:count 0
scalar MultiCell_withSecondaryGnb.pgw.ipv4.arp arpReplySent:count 0
scalar MultiCell_withSecondaryGnb.pgw.ipv4.arp arpReplySent:sum(packetBytes) 0
scalar MultiCell_withSecondaryGnb.pgw.ipv4.arp arpRequestSent:count 0
scalar MultiCell_withSecondaryGnb.pgw.ipv4.arp arpRequestSent:sum(packetBytes) 0
scalar MultiCell_withSecondaryGnb.pgw.pppIf.queue queueLength:last 0
scalar MultiCell_withSecondaryGnb.pgw.pppIf.queue queueLength:max 0
scalar MultiCell_withSecondaryGnb.pgw.pppIf.queue queueLength:timeavg 0
scalar MultiCell_withSecondaryGnb.pgw.pppIf.queue queueBitLength:last 0
scalar MultiCell_withSecondaryGnb.pgw.pppIf.queue queueBitLength:max 0
scalar MultiCell_withSecondaryGnb.pgw.pppIf.queue queueBitLength:timeavg 0
scalar MultiCell_withSecondaryGnb.pgw.pppIf.queue outgoingPackets:count 0
scalar MultiCell_withSecondaryGnb.pgw.pppIf.queue outgoingPacketLengths:sum 0
scalar MultiCell_withSecondaryGnb.pgw.pppIf.queue incomingPackets:count 0
scalar MultiCell_withSecondaryGnb.pgw.pppIf.queue incomingPacketLengths:sum 0
scalar MultiCell_withSecondaryGnb.pgw.pppIf.queue droppedPacketsQueueOverflow:count 0
scalar MultiCell_withSecondaryGnb.pgw.pppIf.queue droppedPacketLengthsQueueOverflow:sum 0
scalar MultiCell_withSecondaryGnb.pgw.pppIf.ppp transmissionState:timeavg -nan
scalar MultiCell_withSecondaryGnb.pgw.pppIf.ppp rxPkOk:count 1556
scalar MultiCell_withSecondaryGnb.pgw.pppIf.ppp rxPkOk:sum(packetBytes) 1610460
scalar MultiCell_withSecondaryGnb.pgw.pppIf.ppp txPk:count 0
scalar MultiCell_withSecondaryGnb.pgw.pppIf.ppp txPk:sum(packetBytes) 0
scalar MultiCell_withSecondaryGnb.pgw.pppIf.ppp rcvdPkFromHl:count 0
scalar MultiCell_withSecondaryGnb.pgw.pppIf.ppp rcvdPkFromHl:sum(packetBytes) 0
scalar MultiCell_withSecondaryGnb.pgw.pppIf.ppp passedUpPk:count 1556
scalar MultiCell_withSecondaryGnb.pgw.pppIf.ppp passedUpPk:sum(packetBytes) 1599568
scalar MultiCell_withSecondaryGnb.pgw.pppIf.ppp packetDropIncorrectlyReceived:count 0
scalar MultiCell_withSecondaryGnb.pgw.pppIf.ppp packetDropIncorrectlyReceived:sum(packetBytes) 0
scalar MultiCell_withSecondaryGnb.pgw.pppIf.ppp packetDropInterfaceDown:count 0
scalar MultiCell_withSecondaryGnb.pgw.pppIf.ppp packetDropInterfaceDown:sum(packetBytes) 0
scalar MultiCell_withSecondaryGnb.pgw.pppIf packetDropInterfaceDown:count 0
scalar MultiCell_withSecondaryGnb.pgw.pppIf packetDropInterfaceDown:sum(packetBytes) 0
scalar MultiCell_withSecondaryGnb.pgw.pppIf packetDropNoCarrier:count 0
scalar MultiCell_withSecondaryGnb.pgw.pppIf packetDropNoCarrier:sum(packetBytes) 0
scalar MultiCell_withSecondaryGnb.pgw.udp packetReceived:count 0
scalar MultiCell_withSecondaryGnb.pgw.udp packetReceived:sum(packetBytes) 0
scalar MultiCell_withSecondaryGnb.pgw.udp packetSent:count 1556
scalar MultiCell_withSecondaryGnb.pgw.udp packetSent:sum(packetBytes) 1624464
scalar MultiCell_withSecondaryGnb.pgw.udp passedUpPk:count 0
scalar MultiCell_withSecondaryGnb.pgw.udp droppedPkWrongPort:count 0
scalar MultiCell_withSecondaryGnb.pgw.udp droppedPkBadChecksum:count 0
scalar MultiCell_withSecondaryGnb.masterEnb1.cellularNic.pdcp sentPacketToLowerLayer:count 320
scalar MultiCell_withSecondaryGnb.masterEnb1.cellularNic.pdcp sentPacketToLowerLayer:sum(packetBytes) 329280
scalar MultiCell_withSecondaryGnb.masterEnb1.cellularNic.pdcp sentPacketToUpperLayer:count 0
scalar MultiCell_withSecondaryGnb.masterEnb1.cellularNic.pdcp sentPacketToUpperLayer:sum(packetBytes) 0
scalar MultiCell_withSecondaryGnb.masterEnb1.cellularNic.pdcp receivedPacketFromLowerLayer:count 0
scalar MultiCell_withSecondaryGnb.masterEnb1.cellularNic.pdcp receivedPacketFromLowerLayer:sum(packetBytes) 0
scalar MultiCell_withSecondaryGnb.masterEnb1.cellularNic.pdcp receivedPacketFromUpperLayer:count 640
scalar MultiCell_withSecondaryGnb.masterEnb1.cellularNic.pdcp receivedPacketFromUpperLayer:sum(packetBytes) 657920
scalar MultiCell_withSecondaryGnb.masterEnb1.cellularNic.rlc.tm rlcPacketLossUl:mean -nan
scalar MultiCell_withSecondaryGnb.masterEnb1.cellularNic.rlc.tm rlcPacketLossUl:sum 0
scalar MultiCell_withSecondaryGnb.masterEnb1.cellularNic.rlc.tm rlcPacketLossDl:mean -nan
scalar MultiCell_withSecondaryGnb.masterEnb1.cellularNic.rlc.tm rlcPacketLossDl:sum 0
scalar MultiCell_withSecondaryGnb.masterEnb1.cellularNic.rlc.tm sentPacketToLowerLayer:count 0
scalar MultiCell_withSecondaryGnb.masterEnb1.cellularNic.rlc.tm sentPacketToLowerLayer:sum(packetBytes) 0
scalar MultiCell_withSecondaryGnb.masterEnb1.cellularNic.rlc.tm sentPacketToUpperLayer:count 0
scalar MultiCell_withSecondaryGnb.masterEnb1.cellularNic.rlc.tm sentPacketToUpperLayer:sum(packetBytes) 0
scalar MultiCell_withSecondaryGnb.masterEnb1.cellularNic.rlc.tm receivedPacketFromLowerLayer:count 0
scalar MultiCell_withSecondaryGnb.masterEnb1.cellularNic.rlc.tm receivedPacketFromLowerLayer:sum(packetBytes) 0
scalar MultiCell_withSecondaryGnb.masterEnb1.cellularNic.rlc.tm receivedPacketFromUpperLayer:count 0
scalar MultiCell_withSecondaryGnb.masterEnb1.cellularNic.rlc.tm receivedPacketFromUpperLayer:sum(packetBytes) 0
scalar MultiCell_withSecondaryGnb.masterEnb1.cellularNic.rlc.um rlcCellThroughputD2D:mean -nan
scalar MultiCell_withSecondaryGnb.masterEnb1.cellularNic.rlc.um rlcCellPacketLossD2D:mean -nan
scalar MultiCell_withSecondaryGnb.masterEnb1.cellularNic.rlc.um rlcPduThroughputD2D:mean -nan
scalar MultiCell_withSecondaryGnb.masterEnb1.cellularNic.rlc.um rlcPduDelayD2D:mean -nan
scalar MultiCell_withSecondaryGnb.masterEnb1.cellularNic.rlc.um rlcThroughputD2D:mean -nan
scalar MultiCell_withSecondaryGnb.masterEnb1.cellularNic.rlc.um rlcDelayD2D:mean -nan
scalar MultiCell_withSecondaryGnb.masterEnb1.cellularNic.rlc.um rlcPduPacketLossD2D:mean -nan
scalar MultiCell_withSecondaryGnb.masterEnb1.cellularNic.rlc.um rlcPacketLossD2D:mean -nan
scalar MultiCell_withSecondaryGnb.masterEnb1.cellularNic.rlc.um rlcPacketLossTotal:mean -nan
scalar MultiCell_withSecondaryGnb.masterEnb1.cellularNic.rlc.um rlcCellThroughputUl:mean -nan
scalar MultiCell_withSecondaryGnb.masterEnb1.cellularNic.rlc.um rlcCellThroughputDl:mean 57590.055087379296
scalar MultiCell_withSecondaryGnb.masterEnb1.cellularNic.rlc.um rlcPduThroughputUl:mean -nan
scalar MultiCell_withSecondaryGnb.masterEnb1.cellularNic.rlc.um rlcPduThroughputDl:mean -nan
scalar MultiCell_withSecondaryGnb.masterEnb1.cellularNic.rlc.um rlcPduDelayUl:mean -nan
scalar MultiCell_withSecondaryGnb.masterEnb1.cellularNic.rlc.um rlcPduDelayDl:mean -nan
scalar MultiCell_withSecondaryGnb.masterEnb1.cellularNic.rlc.um rlcThroughputUl:mean -nan
scalar MultiCell_withSecondaryGnb.masterEnb1.cellularNic.rlc.um rlcThroughputDl:mean -nan
scalar MultiCell_withSecondaryGnb.masterEnb1.cellularNic.rlc.um rlcDelayUl:mean -nan
scalar MultiCell_withSecondaryGnb.masterEnb1.cellularNic.rlc.um rlcDelayDl:mean -nan
scalar MultiCell_withSecondaryGnb.masterEnb1.cellularNic.rlc.um rlcPduPacketLossUl:mean -nan
scalar MultiCell_withSecondaryGnb.masterEnb1.cellularNic.rlc.um rlcPduPacketLossDl:mean -nan
scalar MultiCell_withSecondaryGnb.masterEnb1.cellularNic.rlc.um rlcPacketLossUl:mean -nan
scalar MultiCell_withSecondaryGnb.masterEnb1.cellularNic.rlc.um rlcPacketLossUl:sum 0
scalar MultiCell_withSecondaryGnb.masterEnb1.cellularNic.rlc.um rlcPacketLossDl:mean -nan
scalar MultiCell_withSecondaryGnb.masterEnb1.cellularNic.rlc.um rlcPacketLossDl:sum 0
scalar MultiCell_withSecondaryGnb.masterEnb1.cellularNic.rlc.um rlcCellPacketLossUl:mean -nan
scalar MultiCell_withSecondaryGnb.masterEnb1.cellularNic.rlc.um rlcCellPacketLossDl:mean 0
scalar MultiCell_withSecondaryGnb.masterEnb1.cellularNic.rlc.um sentPacketToLowerLayer:count 320
scalar MultiCell_withSecondaryGnb.masterEnb1.cellularNic.rlc.um sentPacketToLowerLayer:sum(packetBytes) 329920
scalar MultiCell_withSecondaryGnb.masterEnb1.cellularNic.rlc.um sentPacketToUpperLayer:count 0
scalar MultiCell_withSecondaryGnb.masterEnb1.cellularNic.rlc.um sentPacketToUpperLayer:sum(packetBytes) 0
scalar MultiCell_withSecondaryGnb.masterEnb1.cellularNic.rlc.um receivedPacketFromLowerLayer:count 0
scalar MultiCell_withSecondaryGnb.masterEnb1.cellularNic.rlc.um receivedPacketFromLowerLayer:sum(packetBytes) 0
scalar MultiCell_withSecondaryGnb.masterEnb1.cellularNic.rlc.um receivedPacketFromUpperLayer:count 320
scalar MultiCell_withSecondaryGnb.masterEnb1.cellularNic.rlc.um receivedPacketFromUpperLayer:sum(packetBytes) 329280
scalar MultiCell_withSecondaryGnb.masterEnb1.cellularNic.rlc.am rlcPacketLossTotal:mean -nan
scalar MultiCell_withSecondaryGnb.masterEnb1.cellularNic.rlc.am rlcCellThroughputUl:mean -nan
scalar MultiCell_withSecondaryGnb.masterEnb1.cellularNic.rlc.am rlcCellThroughputDl:mean -nan
scalar MultiCell_withSecondaryGnb.masterEnb1.cellularNic.rlc.am rlcPduThroughputUl:mean -nan
scalar MultiCell_withSecondaryGnb.masterEnb1.cellularNic.rlc.am rlcPduThroughputDl:mean -nan
scalar MultiCell_withSecondaryGnb.masterEnb1.cellularNic.rlc.am rlcPduDelayUl:mean -nan
scalar MultiCell_withSecondaryGnb.masterEnb1.cellularNic.rlc.am rlcPduDelayDl:mean -nan
scalar MultiCell_withSecondaryGnb.masterEnb1.cellularNic.rlc.am rlcThroughputUl:mean -nan
scalar MultiCell_withSecondaryGnb.masterEnb1.cellularNic.rlc.am rlcThroughputDl:mean -nan
scalar MultiCell_withSecondaryGnb.masterEnb1.cellularNic.rlc.am rlcDelayUl:mean -nan
scalar MultiCell_withSecondaryGnb.masterEnb1.cellularNic.rlc.am rlcDelayDl:mean -nan
scalar MultiCell_withSecondaryGnb.masterEnb1.cellularNic.rlc.am rlcPduPacketLossUl:mean -nan
scalar MultiCell_withSecondaryGnb.masterEnb1.cellularNic.rlc.am rlcPduPacketLossDl:mean -nan
scalar MultiCell_withSecondaryGnb.masterEnb1.cellularNic.rlc.am rlcPacketLossUl:mean -nan
scalar MultiCell_withSecondaryGnb.masterEnb1.cellularNic.rlc.am rlcPacketLossDl:mean -nan
scalar MultiCell_withSecondaryGnb.masterEnb1.cellularNic.rlc.am rlcCellPacketLossUl:mean -nan
scalar MultiCell_withSecondaryGnb.masterEnb1.cellularNic.rlc.am rlcCellPacketLossDl:mean -nan
scalar MultiCell_withSecondaryGnb.masterEnb1.cellularNic.mac avgServedBlocksUl:mean 0
scalar MultiCell_withSecondaryGnb.masterEnb1.cellularNic.mac avgServedBlocksDl:mean 0.098459013871439197
scalar MultiCell_withSecondaryGnb.masterEnb1.cellularNic.mac macCellPacketLossD2D:mean -nan
scalar MultiCell_withSecondaryGnb.masterEnb1.cellularNic.mac macCellThroughputD2D:mean -nan
scalar MultiCell_withSecondaryGnb.masterEnb1.cellularNic.mac harqTxAttemptsUl:mean -nan
scalar MultiCell_withSecondaryGnb.masterEnb1.cellularNic.mac harqTxAttemptsDl:mean -nan
scalar MultiCell_withSecondaryGnb.masterEnb1.cellularNic.mac harqErrorRate_4th_Ul:mean -nan
scalar MultiCell_withSecondaryGnb.masterEnb1.cellularNic.mac harqErrorRate_4th_Dl:mean -nan
scalar MultiCell_withSecondaryGnb.masterEnb1.cellularNic.mac harqErrorRate_3rd_Ul:mean -nan
scalar MultiCell_withSecondaryGnb.masterEnb1.cellularNic.mac harqErrorRate_3rd_Dl:mean -nan
scalar MultiCell_withSecondaryGnb.masterEnb1.cellularNic.mac harqErrorRate_2nd_Ul:mean -nan
scalar MultiCell_withSecondaryGnb.masterEnb1.cellularNic.mac harqErrorRate_2nd_Dl:mean -nan
scalar MultiCell_withSecondaryGnb.masterEnb1.cellularNic.mac harqErrorRate_1st_Ul:mean -nan
scalar MultiCell_withSecondaryGnb.masterEnb1.cellularNic.mac harqErrorRate_1st_Dl:mean -nan
scalar MultiCell_withSecondaryGnb.masterEnb1.cellularNic.mac harqErrorRateUl:mean -nan
scalar MultiCell_withSecondaryGnb.masterEnb1.cellularNic.mac harqErrorRateDl:mean -nan
scalar MultiCell_withSecondaryGnb.masterEnb1.cellularNic.mac macCellPacketLossUl:mean -nan
scalar MultiCell_withSecondaryGnb.masterEnb1.cellularNic.mac macCellPacketLossDl:mean 0
scalar MultiCell_withSecondaryGnb.masterEnb1.cellularNic.mac macPacketLossUl:mean -nan
scalar MultiCell_withSecondaryGnb.masterEnb1.cellularNic.mac macPacketLossDl:mean -nan
scalar MultiCell_withSecondaryGnb.masterEnb1.cellularNic.mac macThroughputUl:mean -nan
scalar MultiCell_withSecondaryGnb.masterEnb1.cellularNic.mac macThroughputDl:mean -nan
scalar MultiCell_withSecondaryGnb.masterEnb1.cellularNic.mac macDelayUl:mean -nan
scalar MultiCell_withSecondaryGnb.masterEnb1.cellularNic.mac macDelayDl:mean -nan
scalar MultiCell_withSecondaryGnb.masterEnb1.cellularNic.mac macCellThroughputUl:mean -nan
scalar MultiCell_withSecondaryGnb.masterEnb1.cellularNic.mac macCellThroughputDl:mean 57813.923134366203
scalar MultiCell_withSecondaryGnb.masterEnb1.cellularNic.mac sentPacketToLowerLayer:count 320
scalar MultiCell_withSecondaryGnb.masterEnb1.cellularNic.mac sentPacketToLowerLayer:sum(packetBytes) 330560
scalar MultiCell_withSecondaryGnb.masterEnb1.cellularNic.mac sentPacketToUpperLayer:count 320
scalar MultiCell_withSecondaryGnb.masterEnb1.cellularNic.mac sentPacketToUpperLayer:sum(packetBytes) 320
scalar MultiCell_withSecondaryGnb.masterEnb1.cellularNic.mac receivedPacketFromLowerLayer:count 3000
scalar MultiCell_withSecondaryGnb.masterEnb1.cellularNic.mac receivedPacketFromLowerLayer:sum(packetBytes) 3000
scalar MultiCell_withSecondaryGnb.masterEnb1.cellularNic.mac receivedPacketFromUpperLayer:count 640
scalar MultiCell_withSecondaryGnb.masterEnb1.cellularNic.mac receivedPacketFromUpperLayer:sum(packetBytes) 659840
scalar MultiCell_withSecondaryGnb.masterEnb1.cellularNic.mac macBufferOverFlowD2D:mean -nan
scalar MultiCell_withSecondaryGnb.masterEnb1.cellularNic.mac macBufferOverFlowUl:mean -nan
scalar MultiCell_withSecondaryGnb.masterEnb1.cellularNic.mac macBufferOverFlowDl:mean -nan
scalar MultiCell_withSecondaryGnb.masterEnb1.cellularNic.channelModel[0] measuredSinrUl:mean -nan
scalar MultiCell_withSecondaryGnb.masterEnb1.cellularNic.channelModel[0] measuredSinrDl:mean -nan
scalar MultiCell_withSecondaryGnb.masterEnb1.cellularNic.channelModel[0] rcvdSinrD2D:mean -nan
scalar MultiCell_withSecondaryGnb.masterEnb1.cellularNic.channelModel[0] rcvdSinrUl:mean -nan
scalar MultiCell_withSecondaryGnb.masterEnb1.cellularNic.channelModel[0] rcvdSinrDl:mean -nan
scalar MultiCell_withSecondaryGnb.masterEnb1.cellularNic packetDropInterfaceDown:count 0
scalar MultiCell_withSecondaryGnb.masterEnb1.cellularNic packetDropInterfaceDown:sum(packetBytes) 0
scalar MultiCell_withSecondaryGnb.masterEnb1.cellularNic packetDropNoCarrier:count 0
scalar MultiCell_withSecondaryGnb.masterEnb1.cellularNic packetDropNoCarrier:sum(packetBytes) 0
scalar MultiCell_withSecondaryGnb.masterEnb1.pppIf.queue queueLength:last 0
scalar MultiCell_withSecondaryGnb.masterEnb1.pppIf.queue queueLength:max 0
scalar MultiCell_withSecondaryGnb.masterEnb1.pppIf.queue queueLength:timeavg 0
scalar MultiCell_withSecondaryGnb.masterEnb1.pppIf.queue queueBitLength:last 0
scalar MultiCell_withSecondaryGnb.masterEnb1.pppIf.queue queueBitLength:max 0
scalar MultiCell_withSecondaryGnb.masterEnb1.pppIf.queue queueBitLength:timeavg 0
scalar MultiCell_withSecondaryGnb.masterEnb1.pppIf.queue outgoingPackets:count 0
scalar MultiCell_withSecondaryGnb.masterEnb1.pppIf.queue outgoingPacketLengths:sum 0
scalar MultiCell_withSecondaryGnb.masterEnb1.pppIf.queue incomingPackets:count 0
scalar MultiCell_withSecondaryGnb.masterEnb1.pppIf.queue incomingPacketLengths:sum 0
scalar MultiCell_withSecondaryGnb.masterEnb1.pppIf.queue droppedPacketsQueueOverflow:count 0
scalar MultiCell_withSecondaryGnb.masterEnb1.pppIf.queue droppedPacketLengthsQueueOverflow:sum 0
scalar MultiCell_withSecondaryGnb.masterEnb1.pppIf.ppp transmissionState:timeavg -nan
scalar MultiCell_withSecondaryGnb.masterEnb1.pppIf.ppp rxPkOk:count 642
scalar MultiCell_withSecondaryGnb.masterEnb1.pppIf.ppp rxPkOk:sum(packetBytes) 687582
scalar MultiCell_withSecondaryGnb.masterEnb1.pppIf.ppp txPk:count 0
scalar MultiCell_withSecondaryGnb.masterEnb1.pppIf.ppp txPk:sum(packetBytes) 0
scalar MultiCell_withSecondaryGnb.masterEnb1.pppIf.ppp rcvdPkFromHl:count 0
scalar MultiCell_withSecondaryGnb.masterEnb1.pppIf.ppp rcvdPkFromHl:sum(packetBytes) 0
scalar MultiCell_withSecondaryGnb.masterEnb1.pppIf.ppp passedUpPk:count 642
scalar MultiCell_withSecondaryGnb.masterEnb1.pppIf.ppp passedUpPk:sum(packetBytes) 683088
scalar MultiCell_withSecondaryGnb.masterEnb1.pppIf.ppp packetDropIncorrectlyReceived:count 0
scalar MultiCell_withSecondaryGnb.masterEnb1.pppIf.ppp packetDropIncorrectlyReceived:sum(packetBytes) 0
scalar MultiCell_withSecondaryGnb.masterEnb1.pppIf.ppp packetDropInterfaceDown:count 0
scalar MultiCell_withSecondaryGnb.masterEnb1.pppIf.ppp packetDropInterfaceDown:sum(packetBytes) 0
scalar MultiCell_withSecondaryGnb.masterEnb1.pppIf packetDropInterfaceDown:count 0
scalar MultiCell_withSecondaryGnb.masterEnb1.pppIf packetDropInterfaceDown:sum(packetBytes) 0
scalar MultiCell_withSecondaryGnb.masterEnb1.pppIf packetDropNoCarrier:count 0
scalar MultiCell_withSecondaryGnb.masterEnb1.pppIf packetDropNoCarrier:sum(packetBytes) 0
scalar MultiCell_withSecondaryGnb.masterEnb1.x2ppp[0].queue queueLength:last 0
scalar MultiCell_withSecondaryGnb.masterEnb1.x2ppp[0].queue queueLength:max 0
scalar MultiCell_withSecondaryGnb.masterEnb1.x2ppp[0].queue queueLength:timeavg 0
scalar MultiCell_withSecondaryGnb.masterEnb1.x2ppp[0].queue queueBitLength:last 0
scalar MultiCell_withSecondaryGnb.masterEnb1.x2ppp[0].queue queueBitLength:max 0
scalar MultiCell_withSecondaryGnb.masterEnb1.x2ppp[0].queue queueBitLength:timeavg 0
scalar MultiCell_withSecondaryGnb.masterEnb1.x2ppp[0].queue outgoingPackets:count 320
scalar MultiCell_withSecondaryGnb.masterEnb1.x2ppp[0].queue outgoingPacketLengths:sum 2736640
scalar MultiCell_withSecondaryGnb.masterEnb1.x2ppp[0].queue incomingPackets:count 320
scalar MultiCell_withSecondaryGnb.masterEnb1.x2ppp[0].queue incomingPacketLengths:sum 2736640
scalar MultiCell_withSecondaryGnb.masterEnb1.x2ppp[0].queue droppedPacketsQueueOverflow:count 0
scalar MultiCell_withSecondaryGnb.masterEnb1.x2ppp[0].queue droppedPacketLengthsQueueOverflow:sum 0
scalar MultiCell_withSecondaryGnb.masterEnb1.x2ppp[0].ppp transmissionState:timeavg 7.06854034158388e-06
scalar MultiCell_withSecondaryGnb.masterEnb1.x2ppp[0].ppp rxPkOk:count 0
scalar MultiCell_withSecondaryGnb.masterEnb1.x2ppp[0].ppp rxPkOk:sum(packetBytes) 0
scalar MultiCell_withSecondaryGnb.masterEnb1.x2ppp[0].ppp txPk:count 320
scalar MultiCell_withSecondaryGnb.masterEnb1.x2ppp[0].ppp txPk:sum(packetBytes) 344320
scalar MultiCell_withSecondaryGnb.masterEnb1.x2ppp[0].ppp rcvdPkFromHl:count 320
scalar MultiCell_withSecondaryGnb.masterEnb1.x2ppp[0].ppp rcvdPkFromHl:sum(packetBytes) 342080
scalar MultiCell_withSecondaryGnb.masterEnb1.x2ppp[0].ppp passedUpPk:count 0
scalar MultiCell_withSecondaryGnb.masterEnb1.x2ppp[0].ppp passedUpPk:sum(packetBytes) 0
scalar MultiCell_withSecondaryGnb.masterEnb1.x2ppp[0].ppp packetDropIncorrectlyReceived:count 0
scalar MultiCell_withSecondaryGnb.masterEnb1.x2ppp[0].ppp packetDropIncorrectlyReceived:sum(packetBytes) 0
scalar MultiCell_withSecondaryGnb.masterEnb1.x2ppp[0].ppp packetDropInterfaceDown:count 0
scalar MultiCell_withSecondaryGnb.masterEnb1.x2ppp[0].ppp packetDropInterfaceDown:sum(packetBytes) 0
scalar MultiCell_withSecondaryGnb.masterEnb1.x2ppp[0] packetDropInterfaceDown:count 0
scalar MultiCell_withSecondaryGnb.masterEnb1.x2ppp[0] packetDropInterfaceDown:sum(packetBytes) 0
scalar MultiCell_withSecondaryGnb.masterEnb1.x2ppp[0] packetDropNoCarrier:count 0
scalar MultiCell_withSecondaryGnb.masterEnb1.x2ppp[0] packetDropNoCarrier:sum(packetBytes) 0
scalar MultiCell_withSecondaryGnb.masterEnb1.x2ppp[1].queue queueLength:last 0
scalar MultiCell_withSecondaryGnb.masterEnb1.x2ppp[1].queue queueLength:max 0
scalar MultiCell_withSecondaryGnb.masterEnb1.x2ppp[1].queue queueLength:timeavg 0
scalar MultiCell_withSecondaryGnb.masterEnb1.x2ppp[1].queue queueBitLength:last 0
scalar MultiCell_withSecondaryGnb.masterEnb1.x2ppp[1].queue queueBitLength:max 0
scalar MultiCell_withSecondaryGnb.masterEnb1.x2ppp[1].queue queueBitLength:timeavg 0
scalar MultiCell_withSecondaryGnb.masterEnb1.x2ppp[1].queue outgoingPackets:count 3
scalar MultiCell_withSecondaryGnb.masterEnb1.x2ppp[1].queue outgoingPacketLengths:sum 17600
scalar MultiCell_withSecondaryGnb.masterEnb1.x2ppp[1].queue incomingPackets:count 3
scalar MultiCell_withSecondaryGnb.masterEnb1.x2ppp[1].queue incomingPacketLengths:sum 17600
scalar MultiCell_withSecondaryGnb.masterEnb1.x2ppp[1].queue droppedPacketsQueueOverflow:count 0
scalar MultiCell_withSecondaryGnb.masterEnb1.x2ppp[1].queue droppedPacketLengthsQueueOverflow:sum 0
scalar MultiCell_withSecondaryGnb.masterEnb1.x2ppp[1].ppp transmissionState:timeavg 7.7336302360219695e-08
scalar MultiCell_withSecondaryGnb.masterEnb1.x2ppp[1].ppp rxPkOk:count 1
scalar MultiCell_withSecondaryGnb.masterEnb1.x2ppp[1].ppp rxPkOk:sum(packetBytes) 55
scalar MultiCell_withSecondaryGnb.masterEnb1.x2ppp[1].ppp txPk:count 3
scalar MultiCell_withSecondaryGnb.masterEnb1.x2ppp[1].ppp txPk:sum(packetBytes) 2221
scalar MultiCell_withSecondaryGnb.masterEnb1.x2ppp[1].ppp rcvdPkFromHl:count 3
scalar MultiCell_withSecondaryGnb.masterEnb1.x2ppp[1].ppp rcvdPkFromHl:sum(packetBytes) 2200
scalar MultiCell_withSecondaryGnb.masterEnb1.x2ppp[1].ppp passedUpPk:count 1
scalar MultiCell_withSecondaryGnb.masterEnb1.x2ppp[1].ppp passedUpPk:sum(packetBytes) 48
scalar MultiCell_withSecondaryGnb.masterEnb1.x2ppp[1].ppp packetDropIncorrectlyReceived:count 0
scalar MultiCell_withSecondaryGnb.masterEnb1.x2ppp[1].ppp packetDropIncorrectlyReceived:sum(packetBytes) 0
scalar MultiCell_withSecondaryGnb.masterEnb1.x2ppp[1].ppp packetDropInterfaceDown:count 0
scalar MultiCell_withSecondaryGnb.masterEnb1.x2ppp[1].ppp packetDropInterfaceDown:sum(packetBytes) 0
scalar MultiCell_withSecondaryGnb.masterEnb1.x2ppp[1] packetDropInterfaceDown:count 0
scalar MultiCell_withSecondaryGnb.masterEnb1.x2ppp[1] packetDropInterfaceDown:sum(packetBytes) 0
scalar MultiCell_withSecondaryGnb.masterEnb1.x2ppp[1] packetDropNoCarrier:count 0
scalar MultiCell_withSecondaryGnb.masterEnb1.x2ppp[1] packetDropNoCarrier:sum(packetBytes) 0
scalar MultiCell_withSecondaryGnb.masterEnb1.pppMEHostIf.queue queueLength:last 0
scalar MultiCell_withSecondaryGnb.masterEnb1.pppMEHostIf.queue queueLength:max 0
scalar MultiCell_withSecondaryGnb.masterEnb1.pppMEHostIf.queue queueLength:timeavg 0
scalar MultiCell_withSecondaryGnb.masterEnb1.pppMEHostIf.queue queueBitLength:last 0
scalar MultiCell_withSecondaryGnb.masterEnb1.pppMEHostIf.queue queueBitLength:max 0
scalar MultiCell_withSecondaryGnb.masterEnb1.pppMEHostIf.queue queueBitLength:timeavg 0
scalar MultiCell_withSecondaryGnb.masterEnb1.pppMEHostIf.queue outgoingPackets:count 0
scalar MultiCell_withSecondaryGnb.masterEnb1.pppMEHostIf.queue outgoingPacketLengths:sum 0
scalar MultiCell_withSecondaryGnb.masterEnb1.pppMEHostIf.queue incomingPackets:count 0
scalar MultiCell_withSecondaryGnb.masterEnb1.pppMEHostIf.queue incomingPacketLengths:sum 0
scalar MultiCell_withSecondaryGnb.masterEnb1.pppMEHostIf.queue droppedPacketsQueueOverflow:count 0
scalar MultiCell_withSecondaryGnb.masterEnb1.pppMEHostIf.queue droppedPacketLengthsQueueOverflow:sum 0
scalar MultiCell_withSecondaryGnb.masterEnb1.pppMEHostIf.ppp transmissionState:timeavg -nan
scalar MultiCell_withSecondaryGnb.masterEnb1.pppMEHostIf.ppp rxPkOk:count 0
scalar MultiCell_withSecondaryGnb.masterEnb1.pppMEHostIf.ppp rxPkOk:sum(packetBytes) 0
scalar MultiCell_withSecondaryGnb.masterEnb1.pppMEHostIf.ppp txPk:count 0
scalar MultiCell_withSecondaryGnb.masterEnb1.pppMEHostIf.ppp txPk:sum(packetBytes) 0
scalar MultiCell_withSecondaryGnb.masterEnb1.pppMEHostIf.ppp rcvdPkFromHl:count 0
scalar MultiCell_withSecondaryGnb.masterEnb1.pppMEHostIf.ppp rcvdPkFromHl:sum(packetBytes) 0
scalar MultiCell_withSecondaryGnb.masterEnb1.pppMEHostIf.ppp passedUpPk:count 0
scalar MultiCell_withSecondaryGnb.masterEnb1.pppMEHostIf.ppp passedUpPk:sum(packetBytes) 0
scalar MultiCell_withSecondaryGnb.masterEnb1.pppMEHostIf.ppp packetDropIncorrectlyReceived:count 0
scalar MultiCell_withSecondaryGnb.masterEnb1.pppMEHostIf.ppp packetDropIncorrectlyReceived:sum(packetBytes) 0
scalar MultiCell_withSecondaryGnb.masterEnb1.pppMEHostIf.ppp packetDropInterfaceDown:count 0
scalar MultiCell_withSecondaryGnb.masterEnb1.pppMEHostIf.ppp packetDropInterfaceDown:sum(packetBytes) 0
scalar MultiCell_withSecondaryGnb.masterEnb1.pppMEHostIf packetDropInterfaceDown:count 0
scalar MultiCell_withSecondaryGnb.masterEnb1.pppMEHostIf packetDropInterfaceDown:sum(packetBytes) 0
scalar MultiCell_withSecondaryGnb.masterEnb1.pppMEHostIf packetDropNoCarrier:count 0
scalar MultiCell_withSecondaryGnb.masterEnb1.pppMEHostIf packetDropNoCarrier:sum(packetBytes) 0
scalar MultiCell_withSecondaryGnb.masterEnb1.ipv4.ip packetDropAddressResolutionFailed:count 0
scalar MultiCell_withSecondaryGnb.masterEnb1.ipv4.ip packetDropAddressResolutionFailed:sum(packetBytes) 0
scalar MultiCell_withSecondaryGnb.masterEnb1.ipv4.ip packetDropHopLimitReached:count 0
scalar MultiCell_withSecondaryGnb.masterEnb1.ipv4.ip packetDropHopLimitReached:sum(packetBytes) 0
scalar MultiCell_withSecondaryGnb.masterEnb1.ipv4.ip packetDropForwardingDisabled:count 0
scalar MultiCell_withSecondaryGnb.masterEnb1.ipv4.ip packetDropForwardingDisabled:sum(packetBytes) 0
scalar MultiCell_withSecondaryGnb.masterEnb1.ipv4.ip packetDropNoInterfaceFound:count 0
scalar MultiCell_withSecondaryGnb.masterEnb1.ipv4.ip packetDropNoInterfaceFound:sum(packetBytes) 0
scalar MultiCell_withSecondaryGnb.masterEnb1.ipv4.ip packetDropNoRouteFound:count 0
scalar MultiCell_withSecondaryGnb.masterEnb1.ipv4.ip packetDropNoRouteFound:sum(packetBytes) 0
scalar MultiCell_withSecondaryGnb.masterEnb1.ipv4.ip packetDropUndefined:count 0
scalar MultiCell_withSecondaryGnb.masterEnb1.ipv4.ip packetDropUndefined:sum(packetBytes) 0
scalar MultiCell_withSecondaryGnb.masterEnb1.ipv4.arp arpResolutionFailed:count 0
scalar MultiCell_withSecondaryGnb.masterEnb1.ipv4.arp arpResolutionCompleted:count 0
scalar MultiCell_withSecondaryGnb.masterEnb1.ipv4.arp arpResolutionInitiated:count 0
scalar MultiCell_withSecondaryGnb.masterEnb1.ipv4.arp arpReplySent:count 0
scalar MultiCell_withSecondaryGnb.masterEnb1.ipv4.arp arpReplySent:sum(packetBytes) 0
scalar MultiCell_withSecondaryGnb.masterEnb1.ipv4.arp arpRequestSent:count 0
scalar MultiCell_withSecondaryGnb.masterEnb1.ipv4.arp arpRequestSent:sum(packetBytes) 0
scalar MultiCell_withSecondaryGnb.masterEnb1.udp packetReceived:count 642
scalar MultiCell_withSecondaryGnb.masterEnb1.udp packetReceived:sum(packetBytes) 670248
scalar MultiCell_withSecondaryGnb.masterEnb1.udp packetSent:count 322
scalar MultiCell_withSecondaryGnb.masterEnb1.udp packetSent:sum(packetBytes) 337776
scalar MultiCell_withSecondaryGnb.masterEnb1.udp passedUpPk:count 642
scalar MultiCell_withSecondaryGnb.masterEnb1.udp droppedPkWrongPort:count 0
scalar MultiCell_withSecondaryGnb.masterEnb1.udp droppedPkBadChecksum:count 0
scalar MultiCell_withSecondaryGnb.masterEnb1.x2App[0].client packetReceived:count 0
scalar MultiCell_withSecondaryGnb.masterEnb1.x2App[0].client packetReceived:sum(packetBytes) 0
scalar MultiCell_withSecondaryGnb.masterEnb1.x2App[0].client packetSent:count 0
scalar MultiCell_withSecondaryGnb.masterEnb1.x2App[0].client packetSent:sum(packetBytes) 0
scalar MultiCell_withSecondaryGnb.masterEnb1.x2App[0].client echoedPk:count 0
scalar MultiCell_withSecondaryGnb.masterEnb1.x2App[0].client echoedPk:sum(packetBytes) 0
scalar MultiCell_withSecondaryGnb.masterEnb1.x2App[0].server "bytes rcvd" 0
scalar MultiCell_withSecondaryGnb.masterEnb1.x2App[0].server throughput -nan
scalar MultiCell_withSecondaryGnb.masterEnb1.x2App[1].client packetReceived:count 0
scalar MultiCell_withSecondaryGnb.masterEnb1.x2App[1].client packetReceived:sum(packetBytes) 0
scalar MultiCell_withSecondaryGnb.masterEnb1.x2App[1].client packetSent:count 0
scalar MultiCell_withSecondaryGnb.masterEnb1.x2App[1].client packetSent:sum(packetBytes) 0
scalar MultiCell_withSecondaryGnb.masterEnb1.x2App[1].client echoedPk:count 0
scalar MultiCell_withSecondaryGnb.masterEnb1.x2App[1].client echoedPk:sum(packetBytes) 0
scalar MultiCell_withSecondaryGnb.masterEnb1.x2App[1].server "bytes rcvd" 0
scalar MultiCell_withSecondaryGnb.masterEnb1.x2App[1].server throughput -nan
scalar MultiCell_withSecondaryGnb.secondaryGnb1.cellularNic.pdcp sentPacketToLowerLayer:count 320
scalar MultiCell_withSecondaryGnb.secondaryGnb1.cellularNic.pdcp sentPacketToLowerLayer:sum(packetBytes) 329280
scalar MultiCell_withSecondaryGnb.secondaryGnb1.cellularNic.pdcp sentPacketToUpperLayer:count 0
scalar MultiCell_withSecondaryGnb.secondaryGnb1.cellularNic.pdcp sentPacketToUpperLayer:sum(packetBytes) 0
scalar MultiCell_withSecondaryGnb.secondaryGnb1.cellularNic.pdcp receivedPacketFromLowerLayer:count 0
scalar MultiCell_withSecondaryGnb.secondaryGnb1.cellularNic.pdcp receivedPacketFromLowerLayer:sum(packetBytes) 0
scalar MultiCell_withSecondaryGnb.secondaryGnb1.cellularNic.pdcp receivedPacketFromUpperLayer:count 0
scalar MultiCell_withSecondaryGnb.secondaryGnb1.cellularNic.pdcp receivedPacketFromUpperLayer:sum(packetBytes) 0
scalar MultiCell_withSecondaryGnb.secondaryGnb1.cellularNic.rlc.tm rlcPacketLossUl:mean -nan
scalar MultiCell_withSecondaryGnb.secondaryGnb1.cellularNic.rlc.tm rlcPacketLossUl:sum 0
scalar MultiCell_withSecondaryGnb.secondaryGnb1.cellularNic.rlc.tm rlcPacketLossDl:mean -nan
scalar MultiCell_withSecondaryGnb.secondaryGnb1.cellularNic.rlc.tm rlcPacketLossDl:sum 0
scalar MultiCell_withSecondaryGnb.secondaryGnb1.cellularNic.rlc.tm sentPacketToLowerLayer:count 0
scalar MultiCell_withSecondaryGnb.secondaryGnb1.cellularNic.rlc.tm sentPacketToLowerLayer:sum(packetBytes) 0
scalar MultiCell_withSecondaryGnb.secondaryGnb1.cellularNic.rlc.tm sentPacketToUpperLayer:count 0
scalar MultiCell_withSecondaryGnb.secondaryGnb1.cellularNic.rlc.tm sentPacketToUpperLayer:sum(packetBytes) 0
scalar MultiCell_withSecondaryGnb.secondaryGnb1.cellularNic.rlc.tm receivedPacketFromLowerLayer:count 0
scalar MultiCell_withSecondaryGnb.secondaryGnb1.cellularNic.rlc.tm receivedPacketFromLowerLayer:sum(packetBytes) 0
scalar MultiCell_withSecondaryGnb.secondaryGnb1.cellularNic.rlc.tm receivedPacketFromUpperLayer:count 0
scalar MultiCell_withSecondaryGnb.secondaryGnb1.cellularNic.rlc.tm receivedPacketFromUpperLayer:sum(packetBytes) 0
scalar MultiCell_withSecondaryGnb.secondaryGnb1.cellularNic.rlc.um rlcCellThroughputD2D:mean -nan
scalar MultiCell_withSecondaryGnb.secondaryGnb1.cellularNic.rlc.um rlcCellPacketLossD2D:mean -nan
scalar MultiCell_withSecondaryGnb.secondaryGnb1.cellularNic.rlc.um rlcPduThroughputD2D:mean -nan
scalar MultiCell_withSecondaryGnb.secondaryGnb1.cellularNic.rlc.um rlcPduDelayD2D:mean -nan
scalar MultiCell_withSecondaryGnb.secondaryGnb1.cellularNic.rlc.um rlcThroughputD2D:mean -nan
scalar MultiCell_withSecondaryGnb.secondaryGnb1.cellularNic.rlc.um rlcDelayD2D:mean -nan
scalar MultiCell_withSecondaryGnb.secondaryGnb1.cellularNic.rlc.um rlcPduPacketLossD2D:mean -nan
scalar MultiCell_withSecondaryGnb.secondaryGnb1.cellularNic.rlc.um rlcPacketLossD2D:mean -nan
scalar MultiCell_withSecondaryGnb.secondaryGnb1.cellularNic.rlc.um rlcPacketLossTotal:mean -nan
scalar MultiCell_withSecondaryGnb.secondaryGnb1.cellularNic.rlc.um rlcCellThroughputUl:mean -nan
scalar MultiCell_withSecondaryGnb.secondaryGnb1.cellularNic.rlc.um rlcCellThroughputDl:mean 58957.827628629435
scalar MultiCell_withSecondaryGnb.secondaryGnb1.cellularNic.rlc.um rlcPduThroughputUl:mean -nan
scalar MultiCell_withSecondaryGnb.secondaryGnb1.cellularNic.rlc.um rlcPduThroughputDl:mean -nan
scalar MultiCell_withSecondaryGnb.secondaryGnb1.cellularNic.rlc.um rlcPduDelayUl:mean -nan
scalar MultiCell_withSecondaryGnb.secondaryGnb1.cellularNic.rlc.um rlcPduDelayDl:mean -nan
scalar MultiCell_withSecondaryGnb.secondaryGnb1.cellularNic.rlc.um rlcThroughputUl:mean -nan
scalar MultiCell_withSecondaryGnb.secondaryGnb1.cellularNic.rlc.um rlcThroughputDl:mean -nan
scalar MultiCell_withSecondaryGnb.secondaryGnb1.cellularNic.rlc.um rlcDelayUl:mean -nan
scalar MultiCell_withSecondaryGnb.secondaryGnb1.cellularNic.rlc.um rlcDelayDl:mean -nan
scalar MultiCell_withSecondaryGnb.secondaryGnb1.cellularNic.rlc.um rlcPduPacketLossUl:mean -nan
scalar MultiCell_withSecondaryGnb.secondaryGnb1.cellularNic.rlc.um rlcPduPacketLossDl:mean -nan
scalar MultiCell_withSecondaryGnb.secondaryGnb1.cellularNic.rlc.um rlcPacketLossUl:mean -nan
scalar MultiCell_withSecondaryGnb.secondaryGnb1.cellularNic.rlc.um rlcPacketLossUl:sum 0
scalar MultiCell_withSecondaryGnb.secondaryGnb1.cellularNic.rlc.um rlcPacketLossDl:mean -nan
scalar MultiCell_withSecondaryGnb.secondaryGnb1.cellularNic.rlc.um rlcPacketLossDl:sum 0
scalar MultiCell_withSecondaryGnb.secondaryGnb1.cellularNic.rlc.um rlcCellPacketLossUl:mean -nan
scalar MultiCell_withSecondaryGnb.secondaryGnb1.cellularNic.rlc.um rlcCellPacketLossDl:mean 0
scalar MultiCell_withSecondaryGnb.secondaryGnb1.cellularNic.rlc.um sentPacketToLowerLayer:count 320
scalar MultiCell_withSecondaryGnb.secondaryGnb1.cellularNic.rlc.um sentPacketToLowerLayer:sum(packetBytes) 329920
scalar MultiCell_withSecondaryGnb.secondaryGnb1.cellularNic.rlc.um sentPacketToUpperLayer:count 0
scalar MultiCell_withSecondaryGnb.secondaryGnb1.cellularNic.rlc.um sentPacketToUpperLayer:sum(packetBytes) 0
scalar MultiCell_withSecondaryGnb.secondaryGnb1.cellularNic.rlc.um receivedPacketFromLowerLayer:count 0
scalar MultiCell_withSecondaryGnb.secondaryGnb1.cellularNic.rlc.um receivedPacketFromLowerLayer:sum(packetBytes) 0
scalar MultiCell_withSecondaryGnb.secondaryGnb1.cellularNic.rlc.um receivedPacketFromUpperLayer:count 320
scalar MultiCell_withSecondaryGnb.secondaryGnb1.cellularNic.rlc.um receivedPacketFromUpperLayer:sum(packetBytes) 329280
scalar MultiCell_withSecondaryGnb.secondaryGnb1.cellularNic.rlc.am rlcPacketLossTotal:mean -nan
scalar MultiCell_withSecondaryGnb.secondaryGnb1.cellularNic.rlc.am rlcCellThroughputUl:mean -nan
scalar MultiCell_withSecondaryGnb.secondaryGnb1.cellularNic.rlc.am rlcCellThroughputDl:mean -nan
scalar MultiCell_withSecondaryGnb.secondaryGnb1.cellularNic.rlc.am rlcPduThroughputUl:mean -nan
scalar MultiCell_withSecondaryGnb.secondaryGnb1.cellularNic.rlc.am rlcPduThroughputDl:mean -nan
scalar MultiCell_withSecondaryGnb.secondaryGnb1.cellularNic.rlc.am rlcPduDelayUl:mean -nan
scalar MultiCell_withSecondaryGnb.secondaryGnb1.cellularNic.rlc.am rlcPduDelayDl:mean -nan
scalar MultiCell_withSecondaryGnb.secondaryGnb1.cellularNic.rlc.am rlcThroughputUl:mean -nan
scalar MultiCell_withSecondaryGnb.secondaryGnb1.cellularNic.rlc.am rlcThroughputDl:mean -nan
scalar MultiCell_withSecondaryGnb.secondaryGnb1.cellularNic.rlc.am rlcDelayUl:mean -nan
scalar MultiCell_withSecondaryGnb.secondaryGnb1.cellularNic.rlc.am rlcDelayDl:mean -nan
scalar MultiCell_withSecondaryGnb.secondaryGnb1.cellularNic.rlc.am rlcPduPacketLossUl:mean -nan
scalar MultiCell_withSecondaryGnb.secondaryGnb1.cellularNic.rlc.am rlcPduPacketLossDl:mean -nan
scalar MultiCell_withSecondaryGnb.secondaryGnb1.cellularNic.rlc.am rlcPacketLossUl:mean -nan
scalar MultiCell_withSecondaryGnb.secondaryGnb1.cellularNic.rlc.am rlcPacketLossDl:mean -nan
scalar MultiCell_withSecondaryGnb.secondaryGnb1.cellularNic.rlc.am rlcCellPacketLossUl:mean -nan
scalar MultiCell_withSecondaryGnb.secondaryGnb1.cellularNic.rlc.am rlcCellPacketLossDl:mean -nan
scalar MultiCell_withSecondaryGnb.secondaryGnb1.cellularNic.mac avgServedBlocksUl:mean 0
scalar MultiCell_withSecondaryGnb.secondaryGnb1.cellularNic.mac avgServedBlocksDl:mean 0.068049537191354065
scalar MultiCell_withSecondaryGnb.secondaryGnb1.cellularNic.mac macCellPacketLossD2D:mean -nan
scalar MultiCell_withSecondaryGnb.secondaryGnb1.cellularNic.mac macCellThroughputD2D:mean -nan
scalar MultiCell_withSecondaryGnb.secondaryGnb1.cellularNic.mac harqTxAttemptsUl:mean -nan
scalar MultiCell_withSecondaryGnb.secondaryGnb1.cellularNic.mac harqTxAttemptsDl:mean -nan
scalar MultiCell_withSecondaryGnb.secondaryGnb1.cellularNic.mac harqErrorRate_4th_Ul:mean -nan
scalar MultiCell_withSecondaryGnb.secondaryGnb1.cellularNic.mac harqErrorRate_4th_Dl:mean -nan
scalar MultiCell_withSecondaryGnb.secondaryGnb1.cellularNic.mac harqErrorRate_3rd_Ul:mean -nan
scalar MultiCell_withSecondaryGnb.secondaryGnb1.cellularNic.mac harqErrorRate_3rd_Dl:mean -nan
scalar MultiCell_withSecondaryGnb.secondaryGnb1.cellularNic.mac harqErrorRate_2nd_Ul:mean -nan
scalar MultiCell_withSecondaryGnb.secondaryGnb1.cellularNic.mac harqErrorRate_2nd_Dl:mean -nan
scalar MultiCell_withSecondaryGnb.secondaryGnb1.cellularNic.mac harqErrorRate_1st_Ul:mean -nan
scalar MultiCell_withSecondaryGnb.secondaryGnb1.cellularNic.mac harqErrorRate_1st_Dl:mean -nan
scalar MultiCell_withSecondaryGnb.secondaryGnb1.cellularNic.mac harqErrorRateUl:mean -nan
scalar MultiCell_withSecondaryGnb.secondaryGnb1.cellularNic.mac harqErrorRateDl:mean -nan
scalar MultiCell_withSecondaryGnb.secondaryGnb1.cellularNic.mac macCellPacketLossUl:mean -nan
scalar MultiCell_withSecondaryGnb.secondaryGnb1.cellularNic.mac macCellPacketLossDl:mean 0
scalar MultiCell_withSecondaryGnb.secondaryGnb1.cellularNic.mac macPacketLossUl:mean -nan
scalar MultiCell_withSecondaryGnb.secondaryGnb1.cellularNic.mac macPacketLossDl:mean -nan
scalar MultiCell_withSecondaryGnb.secondaryGnb1.cellularNic.mac macThroughputUl:mean -nan
scalar MultiCell_withSecondaryGnb.secondaryGnb1.cellularNic.mac macThroughputDl:mean -nan
scalar MultiCell_withSecondaryGnb.secondaryGnb1.cellularNic.mac macDelayUl:mean -nan
scalar MultiCell_withSecondaryGnb.secondaryGnb1.cellularNic.mac macDelayDl:mean -nan
scalar MultiCell_withSecondaryGnb.secondaryGnb1.cellularNic.mac macCellThroughputUl:mean -nan
scalar MultiCell_withSecondaryGnb.secondaryGnb1.cellularNic.mac macCellThroughputDl:mean 59187.012575679481
scalar MultiCell_withSecondaryGnb.secondaryGnb1.cellularNic.mac sentPacketToLowerLayer:count 326
scalar MultiCell_withSecondaryGnb.secondaryGnb1.cellularNic.mac sentPacketToLowerLayer:sum(packetBytes) 336758
scalar MultiCell_withSecondaryGnb.secondaryGnb1.cellularNic.mac sentPacketToUpperLayer:count 320
scalar MultiCell_withSecondaryGnb.secondaryGnb1.cellularNic.mac sentPacketToUpperLayer:sum(packetBytes) 320
scalar MultiCell_withSecondaryGnb.secondaryGnb1.cellularNic.mac receivedPacketFromLowerLayer:count 2997
scalar MultiCell_withSecondaryGnb.secondaryGnb1.cellularNic.mac receivedPacketFromLowerLayer:sum(packetBytes) 2997
scalar MultiCell_withSecondaryGnb.secondaryGnb1.cellularNic.mac receivedPacketFromUpperLayer:count 640
scalar MultiCell_withSecondaryGnb.secondaryGnb1.cellularNic.mac receivedPacketFromUpperLayer:sum(packetBytes) 659840
scalar MultiCell_withSecondaryGnb.secondaryGnb1.cellularNic.mac macBufferOverFlowD2D:mean -nan
scalar MultiCell_withSecondaryGnb.secondaryGnb1.cellularNic.mac macBufferOverFlowUl:mean -nan
scalar MultiCell_withSecondaryGnb.secondaryGnb1.cellularNic.mac macBufferOverFlowDl:mean -nan
scalar MultiCell_withSecondaryGnb.secondaryGnb1.cellularNic.channelModel[0] measuredSinrUl:mean -nan
scalar MultiCell_withSecondaryGnb.secondaryGnb1.cellularNic.channelModel[0] measuredSinrDl:mean -nan
scalar MultiCell_withSecondaryGnb.secondaryGnb1.cellularNic.channelModel[0] rcvdSinrD2D:mean -nan
scalar MultiCell_withSecondaryGnb.secondaryGnb1.cellularNic.channelModel[0] rcvdSinrUl:mean -nan
scalar MultiCell_withSecondaryGnb.secondaryGnb1.cellularNic.channelModel[0] rcvdSinrDl:mean -nan
scalar MultiCell_withSecondaryGnb.secondaryGnb1.cellularNic packetDropInterfaceDown:count 0
scalar MultiCell_withSecondaryGnb.secondaryGnb1.cellularNic packetDropInterfaceDown:sum(packetBytes) 0
scalar MultiCell_withSecondaryGnb.secondaryGnb1.cellularNic packetDropNoCarrier:count 0
scalar MultiCell_withSecondaryGnb.secondaryGnb1.cellularNic packetDropNoCarrier:sum(packetBytes) 0
scalar MultiCell_withSecondaryGnb.secondaryGnb1.pppIf.queue queueLength:last 0
scalar MultiCell_withSecondaryGnb.secondaryGnb1.pppIf.queue queueLength:max 0
scalar MultiCell_withSecondaryGnb.secondaryGnb1.pppIf.queue queueLength:timeavg 0
scalar MultiCell_withSecondaryGnb.secondaryGnb1.pppIf.queue queueBitLength:last 0
scalar MultiCell_withSecondaryGnb.secondaryGnb1.pppIf.queue queueBitLength:max 0
scalar MultiCell_withSecondaryGnb.secondaryGnb1.pppIf.queue queueBitLength:timeavg 0
scalar MultiCell_withSecondaryGnb.secondaryGnb1.pppIf.queue outgoingPackets:count 0
scalar MultiCell_withSecondaryGnb.secondaryGnb1.pppIf.queue outgoingPacketLengths:sum 0
scalar MultiCell_withSecondaryGnb.secondaryGnb1.pppIf.queue incomingPackets:count 0
scalar MultiCell_withSecondaryGnb.secondaryGnb1.pppIf.queue incomingPacketLengths:sum 0
scalar MultiCell_withSecondaryGnb.secondaryGnb1.pppIf.queue droppedPacketsQueueOverflow:count 0
scalar MultiCell_withSecondaryGnb.secondaryGnb1.pppIf.queue droppedPacketLengthsQueueOverflow:sum 0
scalar MultiCell_withSecondaryGnb.secondaryGnb1.pppIf.ppp transmissionState:timeavg -nan
scalar MultiCell_withSecondaryGnb.secondaryGnb1.pppIf.ppp rxPkOk:count 0
scalar MultiCell_withSecondaryGnb.secondaryGnb1.pppIf.ppp rxPkOk:sum(packetBytes) 0
scalar MultiCell_withSecondaryGnb.secondaryGnb1.pppIf.ppp txPk:count 0
scalar MultiCell_withSecondaryGnb.secondaryGnb1.pppIf.ppp txPk:sum(packetBytes) 0
scalar MultiCell_withSecondaryGnb.secondaryGnb1.pppIf.ppp rcvdPkFromHl:count 0
scalar MultiCell_withSecondaryGnb.secondaryGnb1.pppIf.ppp rcvdPkFromHl:sum(packetBytes) 0
scalar MultiCell_withSecondaryGnb.secondaryGnb1.pppIf.ppp passedUpPk:count 0
scalar MultiCell_withSecondaryGnb.secondaryGnb1.pppIf.ppp passedUpPk:sum(packetBytes) 0
scalar MultiCell_withSecondaryGnb.secondaryGnb1.pppIf.ppp packetDropIncorrectlyReceived:count 0
scalar MultiCell_withSecondaryGnb.secondaryGnb1.pppIf.ppp packetDropIncorrectlyReceived:sum(packetBytes) 0
scalar MultiCell_withSecondaryGnb.secondaryGnb1.pppIf.ppp packetDropInterfaceDown:count 0
scalar MultiCell_withSecondaryGnb.secondaryGnb1.pppIf.ppp packetDropInterfaceDown:sum(packetBytes) 0
scalar MultiCell_withSecondaryGnb.secondaryGnb1.pppIf packetDropInterfaceDown:count 0
scalar MultiCell_withSecondaryGnb.secondaryGnb1.pppIf packetDropInterfaceDown:sum(packetBytes) 0
scalar MultiCell_withSecondaryGnb.secondaryGnb1.pppIf packetDropNoCarrier:count 0
scalar MultiCell_withSecondaryGnb.secondaryGnb1.pppIf packetDropNoCarrier:sum(packetBytes) 0
scalar MultiCell_withSecondaryGnb.secondaryGnb1.x2ppp[0].queue queueLength:last 0
scalar MultiCell_withSecondaryGnb.secondaryGnb1.x2ppp[0].queue queueLength:max 0
scalar MultiCell_withSecondaryGnb.secondaryGnb1.x2ppp[0].queue queueLength:timeavg 0
scalar MultiCell_withSecondaryGnb.secondaryGnb1.x2ppp[0].queue queueBitLength:last 0
scalar MultiCell_withSecondaryGnb.secondaryGnb1.x2ppp[0].queue queueBitLength:max 0
scalar MultiCell_withSecondaryGnb.secondaryGnb1.x2ppp[0].queue queueBitLength:timeavg 0
scalar MultiCell_withSecondaryGnb.secondaryGnb1.x2ppp[0].queue outgoingPackets:count 0
scalar MultiCell_withSecondaryGnb.secondaryGnb1.x2ppp[0].queue outgoingPacketLengths:sum 0
scalar MultiCell_withSecondaryGnb.secondaryGnb1.x2ppp[0].queue incomingPackets:count 0
scalar MultiCell_withSecondaryGnb.secondaryGnb1.x2ppp[0].queue incomingPacketLengths:sum 0
scalar MultiCell_withSecondaryGnb.secondaryGnb1.x2ppp[0].queue droppedPacketsQueueOverflow:count 0
scalar MultiCell_withSecondaryGnb.secondaryGnb1.x2ppp[0].queue droppedPacketLengthsQueueOverflow:sum 0
scalar MultiCell_withSecondaryGnb.secondaryGnb1.x2ppp[0].ppp transmissionState:timeavg -nan
scalar MultiCell_withSecondaryGnb.secondaryGnb1.x2ppp[0].ppp rxPkOk:count 320
scalar MultiCell_withSecondaryGnb.secondaryGnb1.x2ppp[0].ppp rxPkOk:sum(packetBytes) 344320
scalar MultiCell_withSecondaryGnb.secondaryGnb1.x2ppp[0].ppp txPk:count 0
scalar MultiCell_withSecondaryGnb.secondaryGnb1.x2ppp[0].ppp txPk:sum(packetBytes) 0
scalar MultiCell_withSecondaryGnb.secondaryGnb1.x2ppp[0].ppp rcvdPkFromHl:count 0
scalar MultiCell_withSecondaryGnb.secondaryGnb1.x2ppp[0].ppp rcvdPkFromHl:sum(packetBytes) 0
scalar MultiCell_withSecondaryGnb.secondaryGnb1.x2ppp[0].ppp passedUpPk:count 320
scalar MultiCell_withSecondaryGnb.secondaryGnb1.x2ppp[0].ppp passedUpPk:sum(packetBytes) 342080
scalar MultiCell_withSecondaryGnb.secondaryGnb1.x2ppp[0].ppp packetDropIncorrectlyReceived:count 0
scalar MultiCell_withSecondaryGnb.secondaryGnb1.x2ppp[0].ppp packetDropIncorrectlyReceived:sum(packetBytes) 0
scalar MultiCell_withSecondaryGnb.secondaryGnb1.x2ppp[0].ppp packetDropInterfaceDown:count 0
scalar MultiCell_withSecondaryGnb.secondaryGnb1.x2ppp[0].ppp packetDropInterfaceDown:sum(packetBytes) 0
scalar MultiCell_withSecondaryGnb.secondaryGnb1.x2ppp[0] packetDropInterfaceDown:count 0
scalar MultiCell_withSecondaryGnb.secondaryGnb1.x2ppp[0] packetDropInterfaceDown:sum(packetBytes) 0
scalar MultiCell_withSecondaryGnb.secondaryGnb1.x2ppp[0] packetDropNoCarrier:count 0
scalar MultiCell_withSecondaryGnb.secondaryGnb1.x2ppp[0] packetDropNoCarrier:sum(packetBytes) 0
scalar MultiCell_withSecondaryGnb.secondaryGnb1.pppMEHostIf.queue queueLength:last 0
scalar MultiCell_withSecondaryGnb.secondaryGnb1.pppMEHostIf.queue queueLength:max 0
scalar MultiCell_withSecondaryGnb.secondaryGnb1.pppMEHostIf.queue queueLength:timeavg 0
scalar MultiCell_withSecondaryGnb.secondaryGnb1.pppMEHostIf.queue queueBitLength:last 0
scalar MultiCell_withSecondaryGnb.secondaryGnb1.pppMEHostIf.queue queueBitLength:max 0
scalar MultiCell_withSecondaryGnb.secondaryGnb1.pppMEHostIf.queue queueBitLength:timeavg 0
scalar MultiCell_withSecondaryGnb.secondaryGnb1.pppMEHostIf.queue outgoingPackets:count 0
scalar MultiCell_withSecondaryGnb.secondaryGnb1.pppMEHostIf.queue outgoingPacketLengths:sum 0
scalar MultiCell_withSecondaryGnb.secondaryGnb1.pppMEHostIf.queue incomingPackets:count 0
scalar MultiCell_withSecondaryGnb.secondaryGnb1.pppMEHostIf.queue incomingPacketLengths:sum 0
scalar MultiCell_withSecondaryGnb.secondaryGnb1.pppMEHostIf.queue droppedPacketsQueueOverflow:count 0
scalar MultiCell_withSecondaryGnb.secondaryGnb1.pppMEHostIf.queue droppedPacketLengthsQueueOverflow:sum 0
scalar MultiCell_withSecondaryGnb.secondaryGnb1.pppMEHostIf.ppp transmissionState:timeavg -nan
scalar MultiCell_withSecondaryGnb.secondaryGnb1.pppMEHostIf.ppp rxPkOk:count 0
scalar MultiCell_withSecondaryGnb.secondaryGnb1.pppMEHostIf.ppp rxPkOk:sum(packetBytes) 0
scalar MultiCell_withSecondaryGnb.secondaryGnb1.pppMEHostIf.ppp txPk:count 0
scalar MultiCell_withSecondaryGnb.secondaryGnb1.pppMEHostIf.ppp txPk:sum(packetBytes) 0
scalar MultiCell_withSecondaryGnb.secondaryGnb1.pppMEHostIf.ppp rcvdPkFromHl:count 0
scalar MultiCell_withSecondaryGnb.secondaryGnb1.pppMEHostIf.ppp rcvdPkFromHl:sum(packetBytes) 0
scalar MultiCell_withSecondaryGnb.secondaryGnb1.pppMEHostIf.ppp passedUpPk:count 0
scalar MultiCell_withSecondaryGnb.secondaryGnb1.pppMEHostIf.ppp passedUpPk:sum(packetBytes) 0
scalar MultiCell_withSecondaryGnb.secondaryGnb1.pppMEHostIf.ppp packetDropIncorrectlyReceived:count 0
scalar MultiCell_withSecondaryGnb.secondaryGnb1.pppMEHostIf.ppp packetDropIncorrectlyReceived:sum(packetBytes) 0
scalar MultiCell_withSecondaryGnb.secondaryGnb1.pppMEHostIf.ppp packetDropInterfaceDown:count 0
scalar MultiCell_withSecondaryGnb.secondaryGnb1.pppMEHostIf.ppp packetDropInterfaceDown:sum(packetBytes) 0
scalar MultiCell_withSecondaryGnb.secondaryGnb1.pppMEHostIf packetDropInterfaceDown:count 0
scalar MultiCell_withSecondaryGnb.secondaryGnb1.pppMEHostIf packetDropInterfaceDown:sum(packetBytes) 0
scalar MultiCell_withSecondaryGnb.secondaryGnb1.pppMEHostIf packetDropNoCarrier:count 0
scalar MultiCell_withSecondaryGnb.secondaryGnb1.pppMEHostIf packetDropNoCarrier:sum(packetBytes) 0
scalar MultiCell_withSecondaryGnb.secondaryGnb1.ipv4.ip packetDropAddressResolutionFailed:count 0
scalar MultiCell_withSecondaryGnb.secondaryGnb1.ipv4.ip packetDropAddressResolutionFailed:sum(packetBytes) 0
scalar MultiCell_withSecondaryGnb.secondaryGnb1.ipv4.ip packetDropHopLimitReached:count 0
scalar MultiCell_withSecondaryGnb.secondaryGnb1.ipv4.ip packetDropHopLimitReached:sum(packetBytes) 0
scalar MultiCell_withSecondaryGnb.secondaryGnb1.ipv4.ip packetDropForwardingDisabled:count 0
scalar MultiCell_withSecondaryGnb.secondaryGnb1.ipv4.ip packetDropForwardingDisabled:sum(packetBytes) 0
scalar MultiCell_withSecondaryGnb.secondaryGnb1.ipv4.ip packetDropNoInterfaceFound:count 0
scalar MultiCell_withSecondaryGnb.secondaryGnb1.ipv4.ip packetDropNoInterfaceFound:sum(packetBytes) 0
scalar MultiCell_withSecondaryGnb.secondaryGnb1.ipv4.ip packetDropNoRouteFound:count 0
scalar MultiCell_withSecondaryGnb.secondaryGnb1.ipv4.ip packetDropNoRouteFound:sum(packetBytes) 0
scalar MultiCell_withSecondaryGnb.secondaryGnb1.ipv4.ip packetDropUndefined:count 0
scalar MultiCell_withSecondaryGnb.secondaryGnb1.ipv4.ip packetDropUndefined:sum(packetBytes) 0
scalar MultiCell_withSecondaryGnb.secondaryGnb1.ipv4.arp arpResolutionFailed:count 0
scalar MultiCell_withSecondaryGnb.secondaryGnb1.ipv4.arp arpResolutionCompleted:count 0
scalar MultiCell_withSecondaryGnb.secondaryGnb1.ipv4.arp arpResolutionInitiated:count 0
scalar MultiCell_withSecondaryGnb.secondaryGnb1.ipv4.arp arpReplySent:count 0
scalar MultiCell_withSecondaryGnb.secondaryGnb1.ipv4.arp arpReplySent:sum(packetBytes) 0
scalar MultiCell_withSecondaryGnb.secondaryGnb1.ipv4.arp arpRequestSent:count 0
scalar MultiCell_withSecondaryGnb.secondaryGnb1.ipv4.arp arpRequestSent:sum(packetBytes) 0
scalar MultiCell_withSecondaryGnb.secondaryGnb1.udp packetReceived:count 320
scalar MultiCell_withSecondaryGnb.secondaryGnb1.udp packetReceived:sum(packetBytes) 335680
scalar MultiCell_withSecondaryGnb.secondaryGnb1.udp packetSent:count 0
scalar MultiCell_withSecondaryGnb.secondaryGnb1.udp packetSent:sum(packetBytes) 0
scalar MultiCell_withSecondaryGnb.secondaryGnb1.udp passedUpPk:count 320
scalar MultiCell_withSecondaryGnb.secondaryGnb1.udp droppedPkWrongPort:count 0
scalar MultiCell_withSecondaryGnb.secondaryGnb1.udp droppedPkBadChecksum:count 0
scalar MultiCell_withSecondaryGnb.secondaryGnb1.x2App[0].client packetReceived:count 0
scalar MultiCell_withSecondaryGnb.secondaryGnb1.x2App[0].client packetReceived:sum(packetBytes) 0
scalar MultiCell_withSecondaryGnb.secondaryGnb1.x2App[0].client packetSent:count 0
scalar MultiCell_withSecondaryGnb.secondaryGnb1.x2App[0].client packetSent:sum(packetBytes) 0
scalar MultiCell_withSecondaryGnb.secondaryGnb1.x2App[0].client echoedPk:count 0
scalar MultiCell_withSecondaryGnb.secondaryGnb1.x2App[0].client echoedPk:sum(packetBytes) 0
scalar MultiCell_withSecondaryGnb.secondaryGnb1.x2App[0].server "bytes rcvd" 0
scalar MultiCell_withSecondaryGnb.secondaryGnb1.x2App[0].server throughput -nan
scalar MultiCell_withSecondaryGnb.masterEnb2.cellularNic.pdcp sentPacketToLowerLayer:count 478
scalar MultiCell_withSecondaryGnb.masterEnb2.cellularNic.pdcp sentPacketToLowerLayer:sum(packetBytes) 491862
scalar MultiCell_withSecondaryGnb.masterEnb2.cellularNic.pdcp sentPacketToUpperLayer:count 0
scalar MultiCell_withSecondaryGnb.masterEnb2.cellularNic.pdcp sentPacketToUpperLayer:sum(packetBytes) 0
scalar MultiCell_withSecondaryGnb.masterEnb2.cellularNic.pdcp receivedPacketFromLowerLayer:count 0
scalar MultiCell_withSecondaryGnb.masterEnb2.cellularNic.pdcp receivedPacketFromLowerLayer:sum(packetBytes) 0
scalar MultiCell_withSecondaryGnb.masterEnb2.cellularNic.pdcp receivedPacketFromUpperLayer:count 916
scalar MultiCell_withSecondaryGnb.masterEnb2.cellularNic.pdcp receivedPacketFromUpperLayer:sum(packetBytes) 941648
scalar MultiCell_withSecondaryGnb.masterEnb2.cellularNic.rlc.tm rlcPacketLossUl:mean -nan
scalar MultiCell_withSecondaryGnb.masterEnb2.cellularNic.rlc.tm rlcPacketLossUl:sum 0
scalar MultiCell_withSecondaryGnb.masterEnb2.cellularNic.rlc.tm rlcPacketLossDl:mean -nan
scalar MultiCell_withSecondaryGnb.masterEnb2.cellularNic.rlc.tm rlcPacketLossDl:sum 0
scalar MultiCell_withSecondaryGnb.masterEnb2.cellularNic.rlc.tm sentPacketToLowerLayer:count 0
scalar MultiCell_withSecondaryGnb.masterEnb2.cellularNic.rlc.tm sentPacketToLowerLayer:sum(packetBytes) 0
scalar MultiCell_withSecondaryGnb.masterEnb2.cellularNic.rlc.tm sentPacketToUpperLayer:count 0
scalar MultiCell_withSecondaryGnb.masterEnb2.cellularNic.rlc.tm sentPacketToUpperLayer:sum(packetBytes) 0
scalar MultiCell_withSecondaryGnb.masterEnb2.cellularNic.rlc.tm receivedPacketFromLowerLayer:count 0
scalar MultiCell_withSecondaryGnb.masterEnb2.cellularNic.rlc.tm receivedPacketFromLowerLayer:sum(packetBytes) 0
scalar MultiCell_withSecondaryGnb.masterEnb2.cellularNic.rlc.tm receivedPacketFromUpperLayer:count 0
scalar MultiCell_withSecondaryGnb.masterEnb2.cellularNic.rlc.tm receivedPacketFromUpperLayer:sum(packetBytes) 0
scalar MultiCell_withSecondaryGnb.masterEnb2.cellularNic.rlc.um rlcCellThroughputD2D:mean -nan
scalar MultiCell_withSecondaryGnb.masterEnb2.cellularNic.rlc.um rlcCellPacketLossD2D:mean -nan
scalar MultiCell_withSecondaryGnb.masterEnb2.cellularNic.rlc.um rlcPduThroughputD2D:mean -nan
scalar MultiCell_withSecondaryGnb.masterEnb2.cellularNic.rlc.um rlcPduDelayD2D:mean -nan
scalar MultiCell_withSecondaryGnb.masterEnb2.cellularNic.rlc.um rlcThroughputD2D:mean -nan
scalar MultiCell_withSecondaryGnb.masterEnb2.cellularNic.rlc.um rlcDelayD2D:mean -nan
scalar MultiCell_withSecondaryGnb.masterEnb2.cellularNic.rlc.um rlcPduPacketLossD2D:mean -nan
scalar MultiCell_withSecondaryGnb.masterEnb2.cellularNic.rlc.um rlcPacketLossD2D:mean -nan
scalar MultiCell_withSecondaryGnb.masterEnb2.cellularNic.rlc.um rlcPacketLossTotal:mean -nan
scalar MultiCell_withSecondaryGnb.masterEnb2.cellularNic.rlc.um rlcCellThroughputUl:mean -nan
scalar MultiCell_withSecondaryGnb.masterEnb2.cellularNic.rlc.um rlcCellThroughputDl:mean 42792.826741416902
scalar MultiCell_withSecondaryGnb.masterEnb2.cellularNic.rlc.um rlcPduThroughputUl:mean -nan
scalar MultiCell_withSecondaryGnb.masterEnb2.cellularNic.rlc.um rlcPduThroughputDl:mean -nan
scalar MultiCell_withSecondaryGnb.masterEnb2.cellularNic.rlc.um rlcPduDelayUl:mean -nan
scalar MultiCell_withSecondaryGnb.masterEnb2.cellularNic.rlc.um rlcPduDelayDl:mean -nan
scalar MultiCell_withSecondaryGnb.masterEnb2.cellularNic.rlc.um rlcThroughputUl:mean -nan
scalar MultiCell_withSecondaryGnb.masterEnb2.cellularNic.rlc.um rlcThroughputDl:mean -nan
scalar MultiCell_withSecondaryGnb.masterEnb2.cellularNic.rlc.um rlcDelayUl:mean -nan
scalar MultiCell_withSecondaryGnb.masterEnb2.cellularNic.rlc.um rlcDelayDl:mean -nan
[...]
scalar MultiCell_withSecondaryGnb.masterEnb2.sctp "Number of Revokable Gap Blocks in SACK 52:mean" 0
scalar MultiCell_withSecondaryGnb.masterEnb2.sctp "Number of Revokable Gap Blocks in SACK 52:stddev" nan
scalar MultiCell_withSecondaryGnb.masterEnb2.sctp "Number of Revokable Gap Blocks in SACK 52:min" 0
scalar MultiCell_withSecondaryGnb.masterEnb2.sctp "Number of Revokable Gap Blocks in SACK 52:max" 0
scalar MultiCell_withSecondaryGnb.masterEnb2.sctp "Number of Revokable Gap Blocks in SACK 52:starttime" 17.075020200800004
scalar MultiCell_withSecondaryGnb.masterEnb2.sctp "Number of Revokable Gap Blocks in SACK 52:endtime" 17.075020200800004
scalar MultiCell_withSecondaryGnb.masterEnb2.sctp "Number of Non-Revokable Gap Blocks in SACK 52:count" 1
scalar MultiCell_withSecondaryGnb.masterEnb2.sctp "Number of Non-Revokable Gap Blocks in SACK 52:sum" 0
scalar MultiCell_withSecondaryGnb.masterEnb2.sctp "Number of Non-Revokable Gap Blocks in SACK 52:sumweights" 1
scalar MultiCell_withSecondaryGnb.masterEnb2.sctp "Number of Non-Revokable Gap Blocks in SACK 52:mean" 0
scalar MultiCell_withSecondaryGnb.masterEnb2.sctp "Number of Non-Revokable Gap Blocks in SACK 52:stddev" nan
scalar MultiCell_withSecondaryGnb.masterEnb2.sctp "Number of Non-Revokable Gap Blocks in SACK 52:min" 0
scalar MultiCell_withSecondaryGnb.masterEnb2.sctp "Number of Non-Revokable Gap Blocks in SACK 52:max" 0
scalar MultiCell_withSecondaryGnb.masterEnb2.sctp "Number of Non-Revokable Gap Blocks in SACK 52:starttime" 17.075020200800004
scalar MultiCell_withSecondaryGnb.masterEnb2.sctp "Number of Non-Revokable Gap Blocks in SACK 52:endtime" 17.075020200800004
scalar MultiCell_withSecondaryGnb.masterEnb2.sctp "TSN Acked CumAck 55:10.0.5.2:count" 1
scalar MultiCell_withSecondaryGnb.masterEnb2.sctp "TSN Acked CumAck 55:10.0.5.2:sum" 2000
scalar MultiCell_withSecondaryGnb.masterEnb2.sctp "TSN Acked CumAck 55:10.0.5.2:sumweights" 1
scalar MultiCell_withSecondaryGnb.masterEnb2.sctp "TSN Acked CumAck 55:10.0.5.2:mean" 2000
scalar MultiCell_withSecondaryGnb.masterEnb2.sctp "TSN Acked CumAck 55:10.0.5.2:stddev" nan
scalar MultiCell_withSecondaryGnb.masterEnb2.sctp "TSN Acked CumAck 55:10.0.5.2:min" 2000
scalar MultiCell_withSecondaryGnb.masterEnb2.sctp "TSN Acked CumAck 55:10.0.5.2:max" 2000
scalar MultiCell_withSecondaryGnb.masterEnb2.sctp "TSN Acked CumAck 55:10.0.5.2:starttime" 17.075020200800004
scalar MultiCell_withSecondaryGnb.masterEnb2.sctp "TSN Acked CumAck 55:10.0.5.2:endtime" 17.075020200800004
scalar MultiCell_withSecondaryGnb.masterEnb2.sctp "RTT 55:10.0.5.2:count" 1
scalar MultiCell_withSecondaryGnb.masterEnb2.sctp "RTT 55:10.0.5.2:sum" 2.008e-07
scalar MultiCell_withSecondaryGnb.masterEnb2.sctp "RTT 55:10.0.5.2:sumweights" 1
scalar MultiCell_withSecondaryGnb.masterEnb2.sctp "RTT 55:10.0.5.2:mean" 2.008e-07
scalar MultiCell_withSecondaryGnb.masterEnb2.sctp "RTT 55:10.0.5.2:stddev" nan
scalar MultiCell_withSecondaryGnb.masterEnb2.sctp "RTT 55:10.0.5.2:min" 2.008e-07
scalar MultiCell_withSecondaryGnb.masterEnb2.sctp "RTT 55:10.0.5.2:max" 2.008e-07
scalar MultiCell_withSecondaryGnb.masterEnb2.sctp "RTT 55:10.0.5.2:starttime" 17.075020200800004
scalar MultiCell_withSecondaryGnb.masterEnb2.sctp "RTT 55:10.0.5.2:endtime" 17.075020200800004
scalar MultiCell_withSecondaryGnb.masterEnb2.sctp "Number of Gap Acked Chunks in Last SACK 55:10.0.2.4:count" 1
scalar MultiCell_withSecondaryGnb.masterEnb2.sctp "Number of Gap Acked Chunks in Last SACK 55:10.0.2.4:sum" 0
scalar MultiCell_withSecondaryGnb.masterEnb2.sctp "Number of Gap Acked Chunks in Last SACK 55:10.0.2.4:sumweights" 1
scalar MultiCell_withSecondaryGnb.masterEnb2.sctp "Number of Gap Acked Chunks in Last SACK 55:10.0.2.4:mean" 0
scalar MultiCell_withSecondaryGnb.masterEnb2.sctp "Number of Gap Acked Chunks in Last SACK 55:10.0.2.4:stddev" nan
scalar MultiCell_withSecondaryGnb.masterEnb2.sctp "Number of Gap Acked Chunks in Last SACK 55:10.0.2.4:min" 0
scalar MultiCell_withSecondaryGnb.masterEnb2.sctp "Number of Gap Acked Chunks in Last SACK 55:10.0.2.4:max" 0
scalar MultiCell_withSecondaryGnb.masterEnb2.sctp "Number of Gap Acked Chunks in Last SACK 55:10.0.2.4:starttime" 17.075020200800004
scalar MultiCell_withSecondaryGnb.masterEnb2.sctp "Number of Gap Acked Chunks in Last SACK 55:10.0.2.4:endtime" 17.075020200800004
scalar MultiCell_withSecondaryGnb.masterEnb2.sctp "Number of Non-Revokable Gap Acked Chunks in Last SACK 55:10.0.2.4:count" 1
scalar MultiCell_withSecondaryGnb.masterEnb2.sctp "Number of Non-Revokable Gap Acked Chunks in Last SACK 55:10.0.2.4:sum" 0
scalar MultiCell_withSecondaryGnb.masterEnb2.sctp "Number of Non-Revokable Gap Acked Chunks in Last SACK 55:10.0.2.4:sumweights" 1
scalar MultiCell_withSecondaryGnb.masterEnb2.sctp "Number of Non-Revokable Gap Acked Chunks in Last SACK 55:10.0.2.4:mean" 0
scalar MultiCell_withSecondaryGnb.masterEnb2.sctp "Number of Non-Revokable Gap Acked Chunks in Last SACK 55:10.0.2.4:stddev" nan
scalar MultiCell_withSecondaryGnb.masterEnb2.sctp "Number of Non-Revokable Gap Acked Chunks in Last SACK 55:10.0.2.4:min" 0
scalar MultiCell_withSecondaryGnb.masterEnb2.sctp "Number of Non-Revokable Gap Acked Chunks in Last SACK 55:10.0.2.4:max" 0
scalar MultiCell_withSecondaryGnb.masterEnb2.sctp "Number of Non-Revokable Gap Acked Chunks in Last SACK 55:10.0.2.4:starttime" 17.075020200800004
scalar MultiCell_withSecondaryGnb.masterEnb2.sctp "Number of Non-Revokable Gap Acked Chunks in Last SACK 55:10.0.2.4:endtime" 17.075020200800004
scalar MultiCell_withSecondaryGnb.masterEnb2.sctp "Number of Gap Missed Chunks in Last SACK 55:10.0.2.4:count" 1
scalar MultiCell_withSecondaryGnb.masterEnb2.sctp "Number of Gap Missed Chunks in Last SACK 55:10.0.2.4:sum" 0
scalar MultiCell_withSecondaryGnb.masterEnb2.sctp "Number of Gap Missed Chunks in Last SACK 55:10.0.2.4:sumweights" 1
scalar MultiCell_withSecondaryGnb.masterEnb2.sctp "Number of Gap Missed Chunks in Last SACK 55:10.0.2.4:mean" 0
scalar MultiCell_withSecondaryGnb.masterEnb2.sctp "Number of Gap Missed Chunks in Last SACK 55:10.0.2.4:stddev" nan
scalar MultiCell_withSecondaryGnb.masterEnb2.sctp "Number of Gap Missed Chunks in Last SACK 55:10.0.2.4:min" 0
scalar MultiCell_withSecondaryGnb.masterEnb2.sctp "Number of Gap Missed Chunks in Last SACK 55:10.0.2.4:max" 0
scalar MultiCell_withSecondaryGnb.masterEnb2.sctp "Number of Gap Missed Chunks in Last SACK 55:10.0.2.4:starttime" 17.075020200800004
scalar MultiCell_withSecondaryGnb.masterEnb2.sctp "Number of Gap Missed Chunks in Last SACK 55:10.0.2.4:endtime" 17.075020200800004
scalar MultiCell_withSecondaryGnb.masterEnb2.sctp "Number of Gap Acked Chunks in Last SACK 55:10.0.5.2:count" 1
scalar MultiCell_withSecondaryGnb.masterEnb2.sctp "Number of Gap Acked Chunks in Last SACK 55:10.0.5.2:sum" 0
scalar MultiCell_withSecondaryGnb.masterEnb2.sctp "Number of Gap Acked Chunks in Last SACK 55:10.0.5.2:sumweights" 1
scalar MultiCell_withSecondaryGnb.masterEnb2.sctp "Number of Gap Acked Chunks in Last SACK 55:10.0.5.2:mean" 0
scalar MultiCell_withSecondaryGnb.masterEnb2.sctp "Number of Gap Acked Chunks in Last SACK 55:10.0.5.2:stddev" nan
scalar MultiCell_withSecondaryGnb.masterEnb2.sctp "Number of Gap Acked Chunks in Last SACK 55:10.0.5.2:min" 0
scalar MultiCell_withSecondaryGnb.masterEnb2.sctp "Number of Gap Acked Chunks in Last SACK 55:10.0.5.2:max" 0
scalar MultiCell_withSecondaryGnb.masterEnb2.sctp "Number of Gap Acked Chunks in Last SACK 55:10.0.5.2:starttime" 17.075020200800004
scalar MultiCell_withSecondaryGnb.masterEnb2.sctp "Number of Gap Acked Chunks in Last SACK 55:10.0.5.2:endtime" 17.075020200800004
scalar MultiCell_withSecondaryGnb.masterEnb2.sctp "Number of Non-Revokable Gap Acked Chunks in Last SACK 55:10.0.5.2:count" 1
scalar MultiCell_withSecondaryGnb.masterEnb2.sctp "Number of Non-Revokable Gap Acked Chunks in Last SACK 55:10.0.5.2:sum" 0
scalar MultiCell_withSecondaryGnb.masterEnb2.sctp "Number of Non-Revokable Gap Acked Chunks in Last SACK 55:10.0.5.2:sumweights" 1
scalar MultiCell_withSecondaryGnb.masterEnb2.sctp "Number of Non-Revokable Gap Acked Chunks in Last SACK 55:10.0.5.2:mean" 0
scalar MultiCell_withSecondaryGnb.masterEnb2.sctp "Number of Non-Revokable Gap Acked Chunks in Last SACK 55:10.0.5.2:stddev" nan
scalar MultiCell_withSecondaryGnb.masterEnb2.sctp "Number of Non-Revokable Gap Acked Chunks in Last SACK 55:10.0.5.2:min" 0
scalar MultiCell_withSecondaryGnb.masterEnb2.sctp "Number of Non-Revokable Gap Acked Chunks in Last SACK 55:10.0.5.2:max" 0
scalar MultiCell_withSecondaryGnb.masterEnb2.sctp "Number of Non-Revokable Gap Acked Chunks in Last SACK 55:10.0.5.2:starttime" 17.075020200800004
scalar MultiCell_withSecondaryGnb.masterEnb2.sctp "Number of Non-Revokable Gap Acked Chunks in Last SACK 55:10.0.5.2:endtime" 17.075020200800004
scalar MultiCell_withSecondaryGnb.masterEnb2.sctp "Number of Gap Missed Chunks in Last SACK 55:10.0.5.2:count" 1
scalar MultiCell_withSecondaryGnb.masterEnb2.sctp "Number of Gap Missed Chunks in Last SACK 55:10.0.5.2:sum" 0
scalar MultiCell_withSecondaryGnb.masterEnb2.sctp "Number of Gap Missed Chunks in Last SACK 55:10.0.5.2:sumweights" 1
scalar MultiCell_withSecondaryGnb.masterEnb2.sctp "Number of Gap Missed Chunks in Last SACK 55:10.0.5.2:mean" 0
scalar MultiCell_withSecondaryGnb.masterEnb2.sctp "Number of Gap Missed Chunks in Last SACK 55:10.0.5.2:stddev" nan
scalar MultiCell_withSecondaryGnb.masterEnb2.sctp "Number of Gap Missed Chunks in Last SACK 55:10.0.5.2:min" 0
scalar MultiCell_withSecondaryGnb.masterEnb2.sctp "Number of Gap Missed Chunks in Last SACK 55:10.0.5.2:max" 0
scalar MultiCell_withSecondaryGnb.masterEnb2.sctp "Number of Gap Missed Chunks in Last SACK 55:10.0.5.2:starttime" 17.075020200800004
scalar MultiCell_withSecondaryGnb.masterEnb2.sctp "Number of Gap Missed Chunks in Last SACK 55:10.0.5.2:endtime" 17.075020200800004
scalar MultiCell_withSecondaryGnb.masterEnb2.sctp "Number of Gap Acked Chunks in Last SACK 55:192.168.7.1:count" 1
scalar MultiCell_withSecondaryGnb.masterEnb2.sctp "Number of Gap Acked Chunks in Last SACK 55:192.168.7.1:sum" 0
scalar MultiCell_withSecondaryGnb.masterEnb2.sctp "Number of Gap Acked Chunks in Last SACK 55:192.168.7.1:sumweights" 1
scalar MultiCell_withSecondaryGnb.masterEnb2.sctp "Number of Gap Acked Chunks in Last SACK 55:192.168.7.1:mean" 0
scalar MultiCell_withSecondaryGnb.masterEnb2.sctp "Number of Gap Acked Chunks in Last SACK 55:192.168.7.1:stddev" nan
scalar MultiCell_withSecondaryGnb.masterEnb2.sctp "Number of Gap Acked Chunks in Last SACK 55:192.168.7.1:min" 0
scalar MultiCell_withSecondaryGnb.masterEnb2.sctp "Number of Gap Acked Chunks in Last SACK 55:192.168.7.1:max" 0
scalar MultiCell_withSecondaryGnb.masterEnb2.sctp "Number of Gap Acked Chunks in Last SACK 55:192.168.7.1:starttime" 17.075020200800004
scalar MultiCell_withSecondaryGnb.masterEnb2.sctp "Number of Gap Acked Chunks in Last SACK 55:192.168.7.1:endtime" 17.075020200800004
scalar MultiCell_withSecondaryGnb.masterEnb2.sctp "Number of Non-Revokable Gap Acked Chunks in Last SACK 55:192.168.7.1:count" 1
scalar MultiCell_withSecondaryGnb.masterEnb2.sctp "Number of Non-Revokable Gap Acked Chunks in Last SACK 55:192.168.7.1:sum" 0
scalar MultiCell_withSecondaryGnb.masterEnb2.sctp "Number of Non-Revokable Gap Acked Chunks in Last SACK 55:192.168.7.1:sumweights" 1
scalar MultiCell_withSecondaryGnb.masterEnb2.sctp "Number of Non-Revokable Gap Acked Chunks in Last SACK 55:192.168.7.1:mean" 0
scalar MultiCell_withSecondaryGnb.masterEnb2.sctp "Number of Non-Revokable Gap Acked Chunks in Last SACK 55:192.168.7.1:stddev" nan
scalar MultiCell_withSecondaryGnb.masterEnb2.sctp "Number of Non-Revokable Gap Acked Chunks in Last SACK 55:192.168.7.1:min" 0
scalar MultiCell_withSecondaryGnb.masterEnb2.sctp "Number of Non-Revokable Gap Acked Chunks in Last SACK 55:192.168.7.1:max" 0
scalar MultiCell_withSecondaryGnb.masterEnb2.sctp "Number of Non-Revokable Gap Acked Chunks in Last SACK 55:192.168.7.1:starttime" 17.075020200800004
scalar MultiCell_withSecondaryGnb.masterEnb2.sctp "Number of Non-Revokable Gap Acked Chunks in Last SACK 55:192.168.7.1:endtime" 17.075020200800004
scalar MultiCell_withSecondaryGnb.masterEnb2.sctp "Number of Gap Missed Chunks in Last SACK 55:192.168.7.1:count" 1
scalar MultiCell_withSecondaryGnb.masterEnb2.sctp "Number of Gap Missed Chunks in Last SACK 55:192.168.7.1:sum" 0
scalar MultiCell_withSecondaryGnb.masterEnb2.sctp "Number of Gap Missed Chunks in Last SACK 55:192.168.7.1:sumweights" 1
scalar MultiCell_withSecondaryGnb.masterEnb2.sctp "Number of Gap Missed Chunks in Last SACK 55:192.168.7.1:mean" 0
scalar MultiCell_withSecondaryGnb.masterEnb2.sctp "Number of Gap Missed Chunks in Last SACK 55:192.168.7.1:stddev" nan
scalar MultiCell_withSecondaryGnb.masterEnb2.sctp "Number of Gap Missed Chunks in Last SACK 55:192.168.7.1:min" 0
scalar MultiCell_withSecondaryGnb.masterEnb2.sctp "Number of Gap Missed Chunks in Last SACK 55:192.168.7.1:max" 0
scalar MultiCell_withSecondaryGnb.masterEnb2.sctp "Number of Gap Missed Chunks in Last SACK 55:192.168.7.1:starttime" 17.075020200800004
scalar MultiCell_withSecondaryGnb.masterEnb2.sctp "Number of Gap Missed Chunks in Last SACK 55:192.168.7.1:endtime" 17.075020200800004
scalar MultiCell_withSecondaryGnb.masterEnb2.sctp "Number of Gap Acked Chunks in Last SACK 55:192.168.8.1:count" 1
scalar MultiCell_withSecondaryGnb.masterEnb2.sctp "Number of Gap Acked Chunks in Last SACK 55:192.168.8.1:sum" 0
scalar MultiCell_withSecondaryGnb.masterEnb2.sctp "Number of Gap Acked Chunks in Last SACK 55:192.168.8.1:sumweights" 1
scalar MultiCell_withSecondaryGnb.masterEnb2.sctp "Number of Gap Acked Chunks in Last SACK 55:192.168.8.1:mean" 0
scalar MultiCell_withSecondaryGnb.masterEnb2.sctp "Number of Gap Acked Chunks in Last SACK 55:192.168.8.1:stddev" nan
scalar MultiCell_withSecondaryGnb.masterEnb2.sctp "Number of Gap Acked Chunks in Last SACK 55:192.168.8.1:min" 0
scalar MultiCell_withSecondaryGnb.masterEnb2.sctp "Number of Gap Acked Chunks in Last SACK 55:192.168.8.1:max" 0
scalar MultiCell_withSecondaryGnb.masterEnb2.sctp "Number of Gap Acked Chunks in Last SACK 55:192.168.8.1:starttime" 17.075020200800004
scalar MultiCell_withSecondaryGnb.masterEnb2.sctp "Number of Gap Acked Chunks in Last SACK 55:192.168.8.1:endtime" 17.075020200800004
scalar MultiCell_withSecondaryGnb.masterEnb2.sctp "Number of Non-Revokable Gap Acked Chunks in Last SACK 55:192.168.8.1:count" 1
scalar MultiCell_withSecondaryGnb.masterEnb2.sctp "Number of Non-Revokable Gap Acked Chunks in Last SACK 55:192.168.8.1:sum" 0
scalar MultiCell_withSecondaryGnb.masterEnb2.sctp "Number of Non-Revokable Gap Acked Chunks in Last SACK 55:192.168.8.1:sumweights" 1
scalar MultiCell_withSecondaryGnb.masterEnb2.sctp "Number of Non-Revokable Gap Acked Chunks in Last SACK 55:192.168.8.1:mean" 0
scalar MultiCell_withSecondaryGnb.masterEnb2.sctp "Number of Non-Revokable Gap Acked Chunks in Last SACK 55:192.168.8.1:stddev" nan
scalar MultiCell_withSecondaryGnb.masterEnb2.sctp "Number of Non-Revokable Gap Acked Chunks in Last SACK 55:192.168.8.1:min" 0
scalar MultiCell_withSecondaryGnb.masterEnb2.sctp "Number of Non-Revokable Gap Acked Chunks in Last SACK 55:192.168.8.1:max" 0
scalar MultiCell_withSecondaryGnb.masterEnb2.sctp "Number of Non-Revokable Gap Acked Chunks in Last SACK 55:192.168.8.1:starttime" 17.075020200800004
scalar MultiCell_withSecondaryGnb.masterEnb2.sctp "Number of Non-Revokable Gap Acked Chunks in Last SACK 55:192.168.8.1:endtime" 17.075020200800004
scalar MultiCell_withSecondaryGnb.masterEnb2.sctp "Number of Gap Missed Chunks in Last SACK 55:192.168.8.1:count" 1
scalar MultiCell_withSecondaryGnb.masterEnb2.sctp "Number of Gap Missed Chunks in Last SACK 55:192.168.8.1:sum" 0
scalar MultiCell_withSecondaryGnb.masterEnb2.sctp "Number of Gap Missed Chunks in Last SACK 55:192.168.8.1:sumweights" 1
scalar MultiCell_withSecondaryGnb.masterEnb2.sctp "Number of Gap Missed Chunks in Last SACK 55:192.168.8.1:mean" 0
scalar MultiCell_withSecondaryGnb.masterEnb2.sctp "Number of Gap Missed Chunks in Last SACK 55:192.168.8.1:stddev" nan
scalar MultiCell_withSecondaryGnb.masterEnb2.sctp "Number of Gap Missed Chunks in Last SACK 55:192.168.8.1:min" 0
scalar MultiCell_withSecondaryGnb.masterEnb2.sctp "Number of Gap Missed Chunks in Last SACK 55:192.168.8.1:max" 0
scalar MultiCell_withSecondaryGnb.masterEnb2.sctp "Number of Gap Missed Chunks in Last SACK 55:192.168.8.1:starttime" 17.075020200800004
scalar MultiCell_withSecondaryGnb.masterEnb2.sctp "Number of Gap Missed Chunks in Last SACK 55:192.168.8.1:endtime" 17.075020200800004
scalar MultiCell_withSecondaryGnb.masterEnb2.sctp "Arwnd in Last SACK 52:count" 1
scalar MultiCell_withSecondaryGnb.masterEnb2.sctp "Arwnd in Last SACK 52:sum" 65520
scalar MultiCell_withSecondaryGnb.masterEnb2.sctp "Arwnd in Last SACK 52:sumweights" 1
scalar MultiCell_withSecondaryGnb.masterEnb2.sctp "Arwnd in Last SACK 52:mean" 65520
scalar MultiCell_withSecondaryGnb.masterEnb2.sctp "Arwnd in Last SACK 52:stddev" nan
scalar MultiCell_withSecondaryGnb.masterEnb2.sctp "Arwnd in Last SACK 52:min" 65520
scalar MultiCell_withSecondaryGnb.masterEnb2.sctp "Arwnd in Last SACK 52:max" 65520
scalar MultiCell_withSecondaryGnb.masterEnb2.sctp "Arwnd in Last SACK 52:starttime" 17.075020200800004
scalar MultiCell_withSecondaryGnb.masterEnb2.sctp "Arwnd in Last SACK 52:endtime" 17.075020200800004
scalar MultiCell_withSecondaryGnb.masterEnb2.sctp "TSN PseudoCumAck 55:10.0.5.2:count" 1
scalar MultiCell_withSecondaryGnb.masterEnb2.sctp "TSN PseudoCumAck 55:10.0.5.2:sum" 0
scalar MultiCell_withSecondaryGnb.masterEnb2.sctp "TSN PseudoCumAck 55:10.0.5.2:sumweights" 1
scalar MultiCell_withSecondaryGnb.masterEnb2.sctp "TSN PseudoCumAck 55:10.0.5.2:mean" 0
scalar MultiCell_withSecondaryGnb.masterEnb2.sctp "TSN PseudoCumAck 55:10.0.5.2:stddev" nan
scalar MultiCell_withSecondaryGnb.masterEnb2.sctp "TSN PseudoCumAck 55:10.0.5.2:min" 0
scalar MultiCell_withSecondaryGnb.masterEnb2.sctp "TSN PseudoCumAck 55:10.0.5.2:max" 0
scalar MultiCell_withSecondaryGnb.masterEnb2.sctp "TSN PseudoCumAck 55:10.0.5.2:starttime" 17.075020200800004
scalar MultiCell_withSecondaryGnb.masterEnb2.sctp "TSN PseudoCumAck 55:10.0.5.2:endtime" 17.075020200800004
scalar MultiCell_withSecondaryGnb.masterEnb2.sctp "TSN RTXPseudoCumAck 55:10.0.5.2:count" 1
scalar MultiCell_withSecondaryGnb.masterEnb2.sctp "TSN RTXPseudoCumAck 55:10.0.5.2:sum" 0
scalar MultiCell_withSecondaryGnb.masterEnb2.sctp "TSN RTXPseudoCumAck 55:10.0.5.2:sumweights" 1
scalar MultiCell_withSecondaryGnb.masterEnb2.sctp "TSN RTXPseudoCumAck 55:10.0.5.2:mean" 0
scalar MultiCell_withSecondaryGnb.masterEnb2.sctp "TSN RTXPseudoCumAck 55:10.0.5.2:stddev" nan
scalar MultiCell_withSecondaryGnb.masterEnb2.sctp "TSN RTXPseudoCumAck 55:10.0.5.2:min" 0
scalar MultiCell_withSecondaryGnb.masterEnb2.sctp "TSN RTXPseudoCumAck 55:10.0.5.2:max" 0
scalar MultiCell_withSecondaryGnb.masterEnb2.sctp "TSN RTXPseudoCumAck 55:10.0.5.2:starttime" 17.075020200800004
scalar MultiCell_withSecondaryGnb.masterEnb2.sctp "TSN RTXPseudoCumAck 55:10.0.5.2:endtime" 17.075020200800004
scalar MultiCell_withSecondaryGnb.masterEnb2.sctp "Partial Bytes Acked 55:10.0.5.2:count" 1
scalar MultiCell_withSecondaryGnb.masterEnb2.sctp "Partial Bytes Acked 55:10.0.5.2:sum" 0
scalar MultiCell_withSecondaryGnb.masterEnb2.sctp "Partial Bytes Acked 55:10.0.5.2:sumweights" 1
scalar MultiCell_withSecondaryGnb.masterEnb2.sctp "Partial Bytes Acked 55:10.0.5.2:mean" 0
scalar MultiCell_withSecondaryGnb.masterEnb2.sctp "Partial Bytes Acked 55:10.0.5.2:stddev" nan
scalar MultiCell_withSecondaryGnb.masterEnb2.sctp "Partial Bytes Acked 55:10.0.5.2:min" 0
scalar MultiCell_withSecondaryGnb.masterEnb2.sctp "Partial Bytes Acked 55:10.0.5.2:max" 0
scalar MultiCell_withSecondaryGnb.masterEnb2.sctp "Partial Bytes Acked 55:10.0.5.2:starttime" 17.075020200800004
scalar MultiCell_withSecondaryGnb.masterEnb2.sctp "Partial Bytes Acked 55:10.0.5.2:endtime" 17.075020200800004

