version 3
run SchedulersTest-0-20260712-14:05:39-20482
attr configname SchedulersTest
attr datetime 20260712-14:05:39
attr datetimef 20260712-140539
attr experiment SchedulersTest
attr inifile omnetpp.ini
attr iterationvars "$sched=\"PF\", $numUEs=50, $pktSize=30B"
attr iterationvarsd sched=PF/numUEs=50/pktSize=30B
attr iterationvarsf sched=PF,numUEs=50,pktSize=30B-
attr measurement "$sched=\"PF\", $numUEs=50, $pktSize=30B"
attr network simu5g.simulations.lte.networks.SingleCell
attr processid 20482
attr repetition 0
attr replication #0
attr resultdir results
attr runnumber 0
attr seedset 0
itervar numUEs 50
itervar pktSize 30B
itervar sched "\"PF\""
config **.param-recording false
config image-path /home/andras/projects/Simu5G-fork/simu5g-fork/images
config output-scalar-file results/omnetpp.ini-SchedulersTest-#0.sca
config output-scalar-precision 17
config output-vector-file results/omnetpp.ini-SchedulersTest-#0.vec
config output-vector-precision 17
config record-eventlog false
config sim-time-limit 10s
config network simu5g.simulations.lte.networks.SingleCell
config sim-time-limit 10s
config repeat 1
config output-scalar-file "results/SchedulersTest/$sched=\"PF\", $numUEs=50, $pktSize=30B-0.sca"
config output-vector-file "results/SchedulersTest/$sched=\"PF\", $numUEs=50, $pktSize=30B-0.vec"
config seed-set 0
config **.ue[*].servingNodeId 1
config *.eNB.mobility.initFromDisplayString false
config *.eNB.mobility.initialX 0m
config *.eNB.mobility.initialY 0m
config **.schedulingDisciplineDl "\"PF\""
config **.numUe 50
config *.server.app[*].packetSize 30B
config *.server.numApps 50
config *.ue[*].mobility.initialMovementHeading "uniform(0deg, 360deg)"
config *.ue[*].mobility.constraintAreaMaxX 1000m
config *.ue[*].mobility.constraintAreaMaxY 1000m
config *.ue[*].mobility.constraintAreaMinX 0m
config *.ue[*].mobility.constraintAreaMinY 0m
config *.ue[*].mobility.initFromDisplayString false
config *.ue[*].mobility.initialX uniform(0m,300m)
config *.ue[*].mobility.initialY uniform(0m,300m)
config *.ue[*].mobility.initialZ 0m
config *.ue[*].mobility.speed 1mps
config *.ue[*].mobility.typename LinearMobility
config *.ue[*].app[*].typename VoipReceiver
config *.ue[*].app[0].localPort 3000
config *.server.app[*].destAddress "\"ue[\"+string(ancestorIndex(0))+\"]\""
config *.server.app[*].destPort 3000
config *.server.app[*].localPort 3088+ancestorIndex(0)
config *.server.app[*].typename VoipSender
config *.server.app[*].startTime uniform(0s,0.02s)
config sim-time-limit 20s
config output-scalar-file results/SchedulersTest/0.sca
config output-vector-file results/SchedulersTest/0.vec
config seed-set 0
config **.vector-recording false
config **.mobility.constraintAreaMinZ 0m
config **.mobility.constraintAreaMaxZ 0m
config **.mobility.initFromDisplayString true
config **.numBands 6
config **.ueTxPower 26dBm
config **.eNodeBTxPower 40dBm
config *.configurator.config "xmldoc(\"./demo.xml\")"

scalar SingleCell.server.lo[0].lo rcvdPkFromHl:count 0
scalar SingleCell.server.lo[0].lo rcvdPkFromHl:sum(packetBytes) 0
scalar SingleCell.server.lo[0].lo passedUpPk:count 0
scalar SingleCell.server.lo[0].lo passedUpPk:sum(packetBytes) 0
scalar SingleCell.server.lo[0] packetDropInterfaceDown:count 0
scalar SingleCell.server.lo[0] packetDropInterfaceDown:sum(packetBytes) 0
scalar SingleCell.server.lo[0] packetDropNoCarrier:count 0
scalar SingleCell.server.lo[0] packetDropNoCarrier:sum(packetBytes) 0
scalar SingleCell.server.ppp[0].queue queueLength:last 0
scalar SingleCell.server.ppp[0].queue queueLength:max 0
scalar SingleCell.server.ppp[0].queue queueLength:timeavg 0
scalar SingleCell.server.ppp[0].queue queueBitLength:last 0
scalar SingleCell.server.ppp[0].queue queueBitLength:max 0
scalar SingleCell.server.ppp[0].queue queueBitLength:timeavg 0
scalar SingleCell.server.ppp[0].queue outgoingPackets:count 16028
scalar SingleCell.server.ppp[0].queue outgoingPacketLengths:sum 7436992
scalar SingleCell.server.ppp[0].queue incomingPackets:count 16028
scalar SingleCell.server.ppp[0].queue incomingPacketLengths:sum 7436992
scalar SingleCell.server.ppp[0].queue droppedPacketsQueueOverflow:count 0
scalar SingleCell.server.ppp[0].queue droppedPacketLengthsQueueOverflow:sum 0
scalar SingleCell.server.ppp[0].ppp transmissionState:timeavg 8.3345599999972228e-05
scalar SingleCell.server.ppp[0].ppp rxPkOk:count 15962
scalar SingleCell.server.ppp[0].ppp rxPkOk:sum(packetBytes) 1005606
scalar SingleCell.server.ppp[0].ppp txPk:count 16028
scalar SingleCell.server.ppp[0].ppp txPk:sum(packetBytes) 1041820
scalar SingleCell.server.ppp[0].ppp rcvdPkFromHl:count 16028
scalar SingleCell.server.ppp[0].ppp rcvdPkFromHl:sum(packetBytes) 929624
scalar SingleCell.server.ppp[0].ppp passedUpPk:count 15962
scalar SingleCell.server.ppp[0].ppp passedUpPk:sum(packetBytes) 893872
scalar SingleCell.server.ppp[0].ppp packetDropIncorrectlyReceived:count 0
scalar SingleCell.server.ppp[0].ppp packetDropIncorrectlyReceived:sum(packetBytes) 0
scalar SingleCell.server.ppp[0].ppp packetDropInterfaceDown:count 0
scalar SingleCell.server.ppp[0].ppp packetDropInterfaceDown:sum(packetBytes) 0
scalar SingleCell.server.ppp[0] packetDropInterfaceDown:count 0
scalar SingleCell.server.ppp[0] packetDropInterfaceDown:sum(packetBytes) 0
scalar SingleCell.server.ppp[0] packetDropNoCarrier:count 0
scalar SingleCell.server.ppp[0] packetDropNoCarrier:sum(packetBytes) 0
scalar SingleCell.server.ipv4.ip packetDropAddressResolutionFailed:count 0
scalar SingleCell.server.ipv4.ip packetDropAddressResolutionFailed:sum(packetBytes) 0
scalar SingleCell.server.ipv4.ip packetDropHopLimitReached:count 0
scalar SingleCell.server.ipv4.ip packetDropHopLimitReached:sum(packetBytes) 0
scalar SingleCell.server.ipv4.ip packetDropForwardingDisabled:count 0
scalar SingleCell.server.ipv4.ip packetDropForwardingDisabled:sum(packetBytes) 0
scalar SingleCell.server.ipv4.ip packetDropNoInterfaceFound:count 0
scalar SingleCell.server.ipv4.ip packetDropNoInterfaceFound:sum(packetBytes) 0
scalar SingleCell.server.ipv4.ip packetDropNoRouteFound:count 0
scalar SingleCell.server.ipv4.ip packetDropNoRouteFound:sum(packetBytes) 0
scalar SingleCell.server.ipv4.ip packetDropUndefined:count 0
scalar SingleCell.server.ipv4.ip packetDropUndefined:sum(packetBytes) 0
scalar SingleCell.server.ipv4.arp arpResolutionFailed:count 0
scalar SingleCell.server.ipv4.arp arpResolutionCompleted:count 0
scalar SingleCell.server.ipv4.arp arpResolutionInitiated:count 0
scalar SingleCell.server.ipv4.arp arpReplySent:count 0
scalar SingleCell.server.ipv4.arp arpReplySent:sum(packetBytes) 0
scalar SingleCell.server.ipv4.arp arpRequestSent:count 0
scalar SingleCell.server.ipv4.arp arpRequestSent:sum(packetBytes) 0
scalar SingleCell.server.udp packetReceived:count 0
scalar SingleCell.server.udp packetReceived:sum(packetBytes) 0
scalar SingleCell.server.udp packetSent:count 16028
scalar SingleCell.server.udp packetSent:sum(packetBytes) 609064
scalar SingleCell.server.udp passedUpPk:count 0
scalar SingleCell.server.udp droppedPkWrongPort:count 0
scalar SingleCell.server.udp droppedPkBadChecksum:count 0
scalar SingleCell.server.app[0] voipGeneratedThroughput:simu5g_rateavg 1057.5868051465663
scalar SingleCell.server.app[1] voipGeneratedThroughput:simu5g_rateavg 846.32994571515178
scalar SingleCell.server.app[2] voipGeneratedThroughput:simu5g_rateavg 730.05188227462986
scalar SingleCell.server.app[3] voipGeneratedThroughput:simu5g_rateavg 1274.9933048791443
scalar SingleCell.server.app[4] voipGeneratedThroughput:simu5g_rateavg 1404.6659379241255
scalar SingleCell.server.app[5] voipGeneratedThroughput:simu5g_rateavg 525.53251288466356
scalar SingleCell.server.app[6] voipGeneratedThroughput:simu5g_rateavg 639.86055114842259
scalar SingleCell.server.app[7] voipGeneratedThroughput:simu5g_rateavg 1489.9600407003493
scalar SingleCell.server.app[8] voipGeneratedThroughput:simu5g_rateavg 1106.3631945064617
scalar SingleCell.server.app[9] voipGeneratedThroughput:simu5g_rateavg 1255.1053109145837
scalar SingleCell.server.app[10] voipGeneratedThroughput:simu5g_rateavg 1179.2215933634955
scalar SingleCell.server.app[11] voipGeneratedThroughput:simu5g_rateavg 620.35470165004699
scalar SingleCell.server.app[12] voipGeneratedThroughput:simu5g_rateavg 544.50012319024427
scalar SingleCell.server.app[13] voipGeneratedThroughput:simu5g_rateavg 1296.3652288076778
scalar SingleCell.server.app[14] voipGeneratedThroughput:simu5g_rateavg 1324.1787472036392
scalar SingleCell.server.app[15] voipGeneratedThroughput:simu5g_rateavg 923.79168393561883
scalar SingleCell.server.app[16] voipGeneratedThroughput:simu5g_rateavg 1162.2028387324974
scalar SingleCell.server.app[17] voipGeneratedThroughput:simu5g_rateavg 506.30598969221614
scalar SingleCell.server.app[18] voipGeneratedThroughput:simu5g_rateavg 456.5724635980539
scalar SingleCell.server.app[19] voipGeneratedThroughput:simu5g_rateavg 1383.8846625666579
scalar SingleCell.server.app[20] voipGeneratedThroughput:simu5g_rateavg 948.01861208021194
scalar SingleCell.server.app[21] voipGeneratedThroughput:simu5g_rateavg 729.26526365106633
scalar SingleCell.server.app[22] voipGeneratedThroughput:simu5g_rateavg 1064.0530936232037
scalar SingleCell.server.app[23] voipGeneratedThroughput:simu5g_rateavg 877.29701549208312
scalar SingleCell.server.app[24] voipGeneratedThroughput:simu5g_rateavg 953.56502365604899
scalar SingleCell.server.app[25] voipGeneratedThroughput:simu5g_rateavg 220.13996600671965
scalar SingleCell.server.app[26] voipGeneratedThroughput:simu5g_rateavg 1105.3081182980343
scalar SingleCell.server.app[27] voipGeneratedThroughput:simu5g_rateavg 1086.2322535930425
scalar SingleCell.server.app[28] voipGeneratedThroughput:simu5g_rateavg 1303.6167677591561
scalar SingleCell.server.app[29] voipGeneratedThroughput:simu5g_rateavg 1092.584550841867
scalar SingleCell.server.app[30] voipGeneratedThroughput:simu5g_rateavg 1055.6141271062229
scalar SingleCell.server.app[31] voipGeneratedThroughput:simu5g_rateavg 1027.2790776255017
scalar SingleCell.server.app[32] voipGeneratedThroughput:simu5g_rateavg 834.28045263959984
scalar SingleCell.server.app[33] voipGeneratedThroughput:simu5g_rateavg 1003.890556736134
scalar SingleCell.server.app[34] voipGeneratedThroughput:simu5g_rateavg 595.99586834977242
scalar SingleCell.server.app[35] voipGeneratedThroughput:simu5g_rateavg 804.24343367361143
scalar SingleCell.server.app[36] voipGeneratedThroughput:simu5g_rateavg 635.77225528068982
scalar SingleCell.server.app[37] voipGeneratedThroughput:simu5g_rateavg 1177.1352732046455
scalar SingleCell.server.app[38] voipGeneratedThroughput:simu5g_rateavg 792.52195328934295
scalar SingleCell.server.app[39] voipGeneratedThroughput:simu5g_rateavg 928.10577596004475
scalar SingleCell.server.app[40] voipGeneratedThroughput:simu5g_rateavg 1289.7715553741268
scalar SingleCell.server.app[41] voipGeneratedThroughput:simu5g_rateavg 1132.9827428308104
scalar SingleCell.server.app[42] voipGeneratedThroughput:simu5g_rateavg 1070.2482171423933
scalar SingleCell.server.app[43] voipGeneratedThroughput:simu5g_rateavg 640.44679035961144
scalar SingleCell.server.app[44] voipGeneratedThroughput:simu5g_rateavg 869.94997251425355
scalar SingleCell.server.app[45] voipGeneratedThroughput:simu5g_rateavg 1340.6904070560956
scalar SingleCell.server.app[46] voipGeneratedThroughput:simu5g_rateavg 367.14480954786393
scalar SingleCell.server.app[47] voipGeneratedThroughput:simu5g_rateavg 1473.8103231306359
scalar SingleCell.server.app[48] voipGeneratedThroughput:simu5g_rateavg 1311.2078878532905
scalar SingleCell.server.app[49] voipGeneratedThroughput:simu5g_rateavg 339.63305134299924
scalar SingleCell.router.lo[0].lo rcvdPkFromHl:count 0
scalar SingleCell.router.lo[0].lo rcvdPkFromHl:sum(packetBytes) 0
scalar SingleCell.router.lo[0].lo passedUpPk:count 0
scalar SingleCell.router.lo[0].lo passedUpPk:sum(packetBytes) 0
scalar SingleCell.router.lo[0] packetDropInterfaceDown:count 0
scalar SingleCell.router.lo[0] packetDropInterfaceDown:sum(packetBytes) 0
scalar SingleCell.router.lo[0] packetDropNoCarrier:count 0
scalar SingleCell.router.lo[0] packetDropNoCarrier:sum(packetBytes) 0
scalar SingleCell.router.ppp[0].queue queueLength:last 0
scalar SingleCell.router.ppp[0].queue queueLength:max 0
scalar SingleCell.router.ppp[0].queue queueLength:timeavg 0
scalar SingleCell.router.ppp[0].queue queueBitLength:last 0
scalar SingleCell.router.ppp[0].queue queueBitLength:max 0
scalar SingleCell.router.ppp[0].queue queueBitLength:timeavg 0
scalar SingleCell.router.ppp[0].queue outgoingPackets:count 15962
scalar SingleCell.router.ppp[0].queue outgoingPacketLengths:sum 7150976
scalar SingleCell.router.ppp[0].queue incomingPackets:count 15962
scalar SingleCell.router.ppp[0].queue incomingPacketLengths:sum 7150976
scalar SingleCell.router.ppp[0].queue droppedPacketsQueueOverflow:count 0
scalar SingleCell.router.ppp[0].queue droppedPacketLengthsQueueOverflow:sum 0
scalar SingleCell.router.ppp[0].ppp transmissionState:timeavg 8.0448479999969174e-05
scalar SingleCell.router.ppp[0].ppp rxPkOk:count 16028
scalar SingleCell.router.ppp[0].ppp rxPkOk:sum(packetBytes) 1041820
scalar SingleCell.router.ppp[0].ppp txPk:count 15962
scalar SingleCell.router.ppp[0].ppp txPk:sum(packetBytes) 1005606
scalar SingleCell.router.ppp[0].ppp rcvdPkFromHl:count 15962
scalar SingleCell.router.ppp[0].ppp rcvdPkFromHl:sum(packetBytes) 893872
scalar SingleCell.router.ppp[0].ppp passedUpPk:count 16028
scalar SingleCell.router.ppp[0].ppp passedUpPk:sum(packetBytes) 929624
scalar SingleCell.router.ppp[0].ppp packetDropIncorrectlyReceived:count 0
scalar SingleCell.router.ppp[0].ppp packetDropIncorrectlyReceived:sum(packetBytes) 0
scalar SingleCell.router.ppp[0].ppp packetDropInterfaceDown:count 0
scalar SingleCell.router.ppp[0].ppp packetDropInterfaceDown:sum(packetBytes) 0
scalar SingleCell.router.ppp[0] packetDropInterfaceDown:count 0
scalar SingleCell.router.ppp[0] packetDropInterfaceDown:sum(packetBytes) 0
scalar SingleCell.router.ppp[0] packetDropNoCarrier:count 0
scalar SingleCell.router.ppp[0] packetDropNoCarrier:sum(packetBytes) 0
scalar SingleCell.router.ppp[1].queue queueLength:last 0
scalar SingleCell.router.ppp[1].queue queueLength:max 0
scalar SingleCell.router.ppp[1].queue queueLength:timeavg 0
scalar SingleCell.router.ppp[1].queue queueBitLength:last 0
scalar SingleCell.router.ppp[1].queue queueBitLength:max 0
scalar SingleCell.router.ppp[1].queue queueBitLength:timeavg 0
scalar SingleCell.router.ppp[1].queue outgoingPackets:count 16028
scalar SingleCell.router.ppp[1].queue outgoingPacketLengths:sum 7436992
scalar SingleCell.router.ppp[1].queue incomingPackets:count 16028
scalar SingleCell.router.ppp[1].queue incomingPacketLengths:sum 7436992
scalar SingleCell.router.ppp[1].queue droppedPacketsQueueOverflow:count 0
scalar SingleCell.router.ppp[1].queue droppedPacketLengthsQueueOverflow:sum 0
scalar SingleCell.router.ppp[1].ppp transmissionState:timeavg 8.3345599999972228e-05
scalar SingleCell.router.ppp[1].ppp rxPkOk:count 15962
scalar SingleCell.router.ppp[1].ppp rxPkOk:sum(packetBytes) 1005606
scalar SingleCell.router.ppp[1].ppp txPk:count 16028
scalar SingleCell.router.ppp[1].ppp txPk:sum(packetBytes) 1041820
scalar SingleCell.router.ppp[1].ppp rcvdPkFromHl:count 16028
scalar SingleCell.router.ppp[1].ppp rcvdPkFromHl:sum(packetBytes) 929624
scalar SingleCell.router.ppp[1].ppp passedUpPk:count 15962
scalar SingleCell.router.ppp[1].ppp passedUpPk:sum(packetBytes) 893872
scalar SingleCell.router.ppp[1].ppp packetDropIncorrectlyReceived:count 0
scalar SingleCell.router.ppp[1].ppp packetDropIncorrectlyReceived:sum(packetBytes) 0
scalar SingleCell.router.ppp[1].ppp packetDropInterfaceDown:count 0
scalar SingleCell.router.ppp[1].ppp packetDropInterfaceDown:sum(packetBytes) 0
scalar SingleCell.router.ppp[1] packetDropInterfaceDown:count 0
scalar SingleCell.router.ppp[1] packetDropInterfaceDown:sum(packetBytes) 0
scalar SingleCell.router.ppp[1] packetDropNoCarrier:count 0
scalar SingleCell.router.ppp[1] packetDropNoCarrier:sum(packetBytes) 0
scalar SingleCell.router.ipv4.ip packetDropAddressResolutionFailed:count 0
scalar SingleCell.router.ipv4.ip packetDropAddressResolutionFailed:sum(packetBytes) 0
scalar SingleCell.router.ipv4.ip packetDropHopLimitReached:count 0
scalar SingleCell.router.ipv4.ip packetDropHopLimitReached:sum(packetBytes) 0
scalar SingleCell.router.ipv4.ip packetDropForwardingDisabled:count 0
scalar SingleCell.router.ipv4.ip packetDropForwardingDisabled:sum(packetBytes) 0
scalar SingleCell.router.ipv4.ip packetDropNoInterfaceFound:count 0
scalar SingleCell.router.ipv4.ip packetDropNoInterfaceFound:sum(packetBytes) 0
scalar SingleCell.router.ipv4.ip packetDropNoRouteFound:count 0
scalar SingleCell.router.ipv4.ip packetDropNoRouteFound:sum(packetBytes) 0
scalar SingleCell.router.ipv4.ip packetDropUndefined:count 0
scalar SingleCell.router.ipv4.ip packetDropUndefined:sum(packetBytes) 0
scalar SingleCell.router.ipv4.arp arpResolutionFailed:count 0
scalar SingleCell.router.ipv4.arp arpResolutionCompleted:count 0
scalar SingleCell.router.ipv4.arp arpResolutionInitiated:count 0
scalar SingleCell.router.ipv4.arp arpReplySent:count 0
scalar SingleCell.router.ipv4.arp arpReplySent:sum(packetBytes) 0
scalar SingleCell.router.ipv4.arp arpRequestSent:count 0
scalar SingleCell.router.ipv4.arp arpRequestSent:sum(packetBytes) 0
scalar SingleCell.pgw.lo[0].lo rcvdPkFromHl:count 0
scalar SingleCell.pgw.lo[0].lo rcvdPkFromHl:sum(packetBytes) 0
scalar SingleCell.pgw.lo[0].lo passedUpPk:count 0
scalar SingleCell.pgw.lo[0].lo passedUpPk:sum(packetBytes) 0
scalar SingleCell.pgw.lo[0] packetDropInterfaceDown:count 0
scalar SingleCell.pgw.lo[0] packetDropInterfaceDown:sum(packetBytes) 0
scalar SingleCell.pgw.lo[0] packetDropNoCarrier:count 0
scalar SingleCell.pgw.lo[0] packetDropNoCarrier:sum(packetBytes) 0
scalar SingleCell.pgw.ppp[0].queue queueLength:last 0
scalar SingleCell.pgw.ppp[0].queue queueLength:max 0
scalar SingleCell.pgw.ppp[0].queue queueLength:timeavg 0
scalar SingleCell.pgw.ppp[0].queue queueBitLength:last 0
scalar SingleCell.pgw.ppp[0].queue queueBitLength:max 0
scalar SingleCell.pgw.ppp[0].queue queueBitLength:timeavg 0
scalar SingleCell.pgw.ppp[0].queue outgoingPackets:count 16028
scalar SingleCell.pgw.ppp[0].queue outgoingPacketLengths:sum 12053056
scalar SingleCell.pgw.ppp[0].queue incomingPackets:count 16028
scalar SingleCell.pgw.ppp[0].queue incomingPacketLengths:sum 12053056
scalar SingleCell.pgw.ppp[0].queue droppedPacketsQueueOverflow:count 0
scalar SingleCell.pgw.ppp[0].queue droppedPacketLengthsQueueOverflow:sum 0
scalar SingleCell.pgw.ppp[0].ppp transmissionState:timeavg 0.00012950624000001714
scalar SingleCell.pgw.ppp[0].ppp rxPkOk:count 15962
scalar SingleCell.pgw.ppp[0].ppp rxPkOk:sum(packetBytes) 1580238
scalar SingleCell.pgw.ppp[0].ppp txPk:count 16028
scalar SingleCell.pgw.ppp[0].ppp txPk:sum(packetBytes) 1618828
scalar SingleCell.pgw.ppp[0].ppp rcvdPkFromHl:count 16028
scalar SingleCell.pgw.ppp[0].ppp rcvdPkFromHl:sum(packetBytes) 1506632
scalar SingleCell.pgw.ppp[0].ppp passedUpPk:count 15962
scalar SingleCell.pgw.ppp[0].ppp passedUpPk:sum(packetBytes) 1468504
scalar SingleCell.pgw.ppp[0].ppp packetDropIncorrectlyReceived:count 0
scalar SingleCell.pgw.ppp[0].ppp packetDropIncorrectlyReceived:sum(packetBytes) 0
scalar SingleCell.pgw.ppp[0].ppp packetDropInterfaceDown:count 0
scalar SingleCell.pgw.ppp[0].ppp packetDropInterfaceDown:sum(packetBytes) 0
scalar SingleCell.pgw.ppp[0] packetDropInterfaceDown:count 0
scalar SingleCell.pgw.ppp[0] packetDropInterfaceDown:sum(packetBytes) 0
scalar SingleCell.pgw.ppp[0] packetDropNoCarrier:count 0
scalar SingleCell.pgw.ppp[0] packetDropNoCarrier:sum(packetBytes) 0
scalar SingleCell.pgw.ipv4.ip packetDropAddressResolutionFailed:count 0
scalar SingleCell.pgw.ipv4.ip packetDropAddressResolutionFailed:sum(packetBytes) 0
scalar SingleCell.pgw.ipv4.ip packetDropHopLimitReached:count 0
scalar SingleCell.pgw.ipv4.ip packetDropHopLimitReached:sum(packetBytes) 0
scalar SingleCell.pgw.ipv4.ip packetDropForwardingDisabled:count 0
scalar SingleCell.pgw.ipv4.ip packetDropForwardingDisabled:sum(packetBytes) 0
scalar SingleCell.pgw.ipv4.ip packetDropNoInterfaceFound:count 0
scalar SingleCell.pgw.ipv4.ip packetDropNoInterfaceFound:sum(packetBytes) 0
scalar SingleCell.pgw.ipv4.ip packetDropNoRouteFound:count 0
scalar SingleCell.pgw.ipv4.ip packetDropNoRouteFound:sum(packetBytes) 0
scalar SingleCell.pgw.ipv4.ip packetDropUndefined:count 0
scalar SingleCell.pgw.ipv4.ip packetDropUndefined:sum(packetBytes) 0
scalar SingleCell.pgw.ipv4.arp arpResolutionFailed:count 0
scalar SingleCell.pgw.ipv4.arp arpResolutionCompleted:count 0
scalar SingleCell.pgw.ipv4.arp arpResolutionInitiated:count 0
scalar SingleCell.pgw.ipv4.arp arpReplySent:count 0
scalar SingleCell.pgw.ipv4.arp arpReplySent:sum(packetBytes) 0
scalar SingleCell.pgw.ipv4.arp arpRequestSent:count 0
scalar SingleCell.pgw.ipv4.arp arpRequestSent:sum(packetBytes) 0
scalar SingleCell.pgw.pppIf.queue queueLength:last 0
scalar SingleCell.pgw.pppIf.queue queueLength:max 0
scalar SingleCell.pgw.pppIf.queue queueLength:timeavg 0
scalar SingleCell.pgw.pppIf.queue queueBitLength:last 0
scalar SingleCell.pgw.pppIf.queue queueBitLength:max 0
scalar SingleCell.pgw.pppIf.queue queueBitLength:timeavg 0
scalar SingleCell.pgw.pppIf.queue outgoingPackets:count 15962
scalar SingleCell.pgw.pppIf.queue outgoingPacketLengths:sum 7150976
scalar SingleCell.pgw.pppIf.queue incomingPackets:count 15962
scalar SingleCell.pgw.pppIf.queue incomingPacketLengths:sum 7150976
scalar SingleCell.pgw.pppIf.queue droppedPacketsQueueOverflow:count 0
scalar SingleCell.pgw.pppIf.queue droppedPacketLengthsQueueOverflow:sum 0
scalar SingleCell.pgw.pppIf.ppp transmissionState:timeavg 8.0448479999969174e-05
scalar SingleCell.pgw.pppIf.ppp rxPkOk:count 16028
scalar SingleCell.pgw.pppIf.ppp rxPkOk:sum(packetBytes) 1041820
scalar SingleCell.pgw.pppIf.ppp txPk:count 15962
scalar SingleCell.pgw.pppIf.ppp txPk:sum(packetBytes) 1005606
scalar SingleCell.pgw.pppIf.ppp rcvdPkFromHl:count 15962
scalar SingleCell.pgw.pppIf.ppp rcvdPkFromHl:sum(packetBytes) 893872
scalar SingleCell.pgw.pppIf.ppp passedUpPk:count 16028
scalar SingleCell.pgw.pppIf.ppp passedUpPk:sum(packetBytes) 929624
scalar SingleCell.pgw.pppIf.ppp packetDropIncorrectlyReceived:count 0
scalar SingleCell.pgw.pppIf.ppp packetDropIncorrectlyReceived:sum(packetBytes) 0
scalar SingleCell.pgw.pppIf.ppp packetDropInterfaceDown:count 0
scalar SingleCell.pgw.pppIf.ppp packetDropInterfaceDown:sum(packetBytes) 0
scalar SingleCell.pgw.pppIf packetDropInterfaceDown:count 0
scalar SingleCell.pgw.pppIf packetDropInterfaceDown:sum(packetBytes) 0
scalar SingleCell.pgw.pppIf packetDropNoCarrier:count 0
scalar SingleCell.pgw.pppIf packetDropNoCarrier:sum(packetBytes) 0
scalar SingleCell.pgw.udp packetReceived:count 15962
scalar SingleCell.pgw.udp packetReceived:sum(packetBytes) 1149264
scalar SingleCell.pgw.udp packetSent:count 16028
scalar SingleCell.pgw.udp packetSent:sum(packetBytes) 1186072
scalar SingleCell.pgw.udp passedUpPk:count 15962
scalar SingleCell.pgw.udp droppedPkWrongPort:count 0
scalar SingleCell.pgw.udp droppedPkBadChecksum:count 0
scalar SingleCell.eNB.cellularNic.pdcp sentPacketToLowerLayer:count 16028
scalar SingleCell.eNB.cellularNic.pdcp sentPacketToLowerLayer:sum(packetBytes) 945652
scalar SingleCell.eNB.cellularNic.pdcp sentPacketToUpperLayer:count 15964
scalar SingleCell.eNB.cellularNic.pdcp sentPacketToUpperLayer:sum(packetBytes) 893984
scalar SingleCell.eNB.cellularNic.pdcp receivedPacketFromLowerLayer:count 15964
scalar SingleCell.eNB.cellularNic.pdcp receivedPacketFromLowerLayer:sum(packetBytes) 909948
scalar SingleCell.eNB.cellularNic.pdcp receivedPacketFromUpperLayer:count 16028
scalar SingleCell.eNB.cellularNic.pdcp receivedPacketFromUpperLayer:sum(packetBytes) 929624
scalar SingleCell.eNB.cellularNic.rlc.tm rlcPacketLossUl:mean -nan
scalar SingleCell.eNB.cellularNic.rlc.tm rlcPacketLossUl:sum 0
scalar SingleCell.eNB.cellularNic.rlc.tm rlcPacketLossDl:mean -nan
scalar SingleCell.eNB.cellularNic.rlc.tm rlcPacketLossDl:sum 0
scalar SingleCell.eNB.cellularNic.rlc.tm sentPacketToLowerLayer:count 0
scalar SingleCell.eNB.cellularNic.rlc.tm sentPacketToLowerLayer:sum(packetBytes) 0
scalar SingleCell.eNB.cellularNic.rlc.tm sentPacketToUpperLayer:count 0
scalar SingleCell.eNB.cellularNic.rlc.tm sentPacketToUpperLayer:sum(packetBytes) 0
scalar SingleCell.eNB.cellularNic.rlc.tm receivedPacketFromLowerLayer:count 0
scalar SingleCell.eNB.cellularNic.rlc.tm receivedPacketFromLowerLayer:sum(packetBytes) 0
scalar SingleCell.eNB.cellularNic.rlc.tm receivedPacketFromUpperLayer:count 0
scalar SingleCell.eNB.cellularNic.rlc.tm receivedPacketFromUpperLayer:sum(packetBytes) 0
scalar SingleCell.eNB.cellularNic.rlc.um rlcCellThroughputUl:simu5g_rateavg 189943.47250456963
scalar SingleCell.eNB.cellularNic.rlc.um rlcCellThroughputDl:simu5g_rateavg 189905.4979860461
scalar SingleCell.eNB.cellularNic.rlc.um rlcPduThroughputUl:simu5g_rateavg -nan
scalar SingleCell.eNB.cellularNic.rlc.um rlcPduThroughputDl:simu5g_rateavg -nan
scalar SingleCell.eNB.cellularNic.rlc.um rlcPduDelayUl:mean -nan
scalar SingleCell.eNB.cellularNic.rlc.um rlcPduDelayDl:mean -nan
scalar SingleCell.eNB.cellularNic.rlc.um rlcThroughputUl:simu5g_rateavg -nan
scalar SingleCell.eNB.cellularNic.rlc.um rlcThroughputDl:simu5g_rateavg -nan
scalar SingleCell.eNB.cellularNic.rlc.um rlcDelayUl:mean -nan
scalar SingleCell.eNB.cellularNic.rlc.um rlcDelayDl:mean -nan
scalar SingleCell.eNB.cellularNic.rlc.um sentPacketToLowerLayer:count 16125
scalar SingleCell.eNB.cellularNic.rlc.um sentPacketToLowerLayer:sum(packetBytes) 977902
scalar SingleCell.eNB.cellularNic.rlc.um sentPacketToUpperLayer:count 15964
scalar SingleCell.eNB.cellularNic.rlc.um sentPacketToUpperLayer:sum(packetBytes) 909948
scalar SingleCell.eNB.cellularNic.rlc.um receivedPacketFromLowerLayer:count 16839
scalar SingleCell.eNB.cellularNic.rlc.um receivedPacketFromLowerLayer:sum(packetBytes) 945436
scalar SingleCell.eNB.cellularNic.rlc.um receivedPacketFromUpperLayer:count 16028
scalar SingleCell.eNB.cellularNic.rlc.um receivedPacketFromUpperLayer:sum(packetBytes) 945652
scalar SingleCell.eNB.cellularNic.rlc.am rlcPacketLossTotal:mean -nan
scalar SingleCell.eNB.cellularNic.rlc.am rlcCellThroughputUl:simu5g_rateavg -nan
scalar SingleCell.eNB.cellularNic.rlc.am rlcCellThroughputDl:simu5g_rateavg -nan
scalar SingleCell.eNB.cellularNic.rlc.am rlcPduThroughputUl:simu5g_rateavg -nan
scalar SingleCell.eNB.cellularNic.rlc.am rlcPduThroughputDl:simu5g_rateavg -nan
scalar SingleCell.eNB.cellularNic.rlc.am rlcPduDelayUl:mean -nan
scalar SingleCell.eNB.cellularNic.rlc.am rlcPduDelayDl:mean -nan
scalar SingleCell.eNB.cellularNic.rlc.am rlcThroughputUl:simu5g_rateavg -nan
scalar SingleCell.eNB.cellularNic.rlc.am rlcThroughputDl:simu5g_rateavg -nan
scalar SingleCell.eNB.cellularNic.rlc.am rlcDelayUl:mean -nan
scalar SingleCell.eNB.cellularNic.rlc.am rlcDelayDl:mean -nan
scalar SingleCell.eNB.cellularNic.rlc.am rlcPduPacketLossUl:mean -nan
scalar SingleCell.eNB.cellularNic.rlc.am rlcPduPacketLossDl:mean -nan
scalar SingleCell.eNB.cellularNic.rlc.am rlcPacketLossUl:mean -nan
scalar SingleCell.eNB.cellularNic.rlc.am rlcPacketLossDl:mean -nan
scalar SingleCell.eNB.cellularNic.rlc.am rlcCellPacketLossUl:mean -nan
scalar SingleCell.eNB.cellularNic.rlc.am rlcCellPacketLossDl:mean -nan
scalar SingleCell.eNB.cellularNic.mac avgServedBlocksUl:mean 2.2549000000000001
scalar SingleCell.eNB.cellularNic.mac avgServedBlocksDl:mean 1.7237
scalar SingleCell.eNB.cellularNic.mac harqTxAttemptsUl:mean -nan
scalar SingleCell.eNB.cellularNic.mac harqTxAttemptsDl:mean -nan
scalar SingleCell.eNB.cellularNic.mac harqErrorRate_4th_Ul:mean -nan
scalar SingleCell.eNB.cellularNic.mac harqErrorRate_4th_Dl:mean -nan
scalar SingleCell.eNB.cellularNic.mac harqErrorRate_3rd_Ul:mean -nan
scalar SingleCell.eNB.cellularNic.mac harqErrorRate_3rd_Dl:mean -nan
scalar SingleCell.eNB.cellularNic.mac harqErrorRate_2nd_Ul:mean -nan
scalar SingleCell.eNB.cellularNic.mac harqErrorRate_2nd_Dl:mean -nan
scalar SingleCell.eNB.cellularNic.mac harqErrorRate_1st_Ul:mean -nan
scalar SingleCell.eNB.cellularNic.mac harqErrorRate_1st_Dl:mean -nan
scalar SingleCell.eNB.cellularNic.mac harqErrorRateUl:mean -nan
scalar SingleCell.eNB.cellularNic.mac harqErrorRateDl:mean -nan
scalar SingleCell.eNB.cellularNic.mac macCellPacketLossUl:mean 0
scalar SingleCell.eNB.cellularNic.mac macCellPacketLossDl:mean 0
scalar SingleCell.eNB.cellularNic.mac macPacketLossUl:mean -nan
scalar SingleCell.eNB.cellularNic.mac macPacketLossDl:mean -nan
scalar SingleCell.eNB.cellularNic.mac macThroughputUl:simu5g_rateavg -nan
scalar SingleCell.eNB.cellularNic.mac macThroughputDl:simu5g_rateavg -nan
scalar SingleCell.eNB.cellularNic.mac macDelayUl:mean -nan
scalar SingleCell.eNB.cellularNic.mac macDelayDl:mean -nan
scalar SingleCell.eNB.cellularNic.mac macCellThroughputUl:simu5g_rateavg 204066.10182503727
scalar SingleCell.eNB.cellularNic.mac macCellThroughputDl:simu5g_rateavg 204026.63653293016
scalar SingleCell.eNB.cellularNic.mac sentPacketToLowerLayer:count 68625
scalar SingleCell.eNB.cellularNic.mac sentPacketToLowerLayer:sum(packetBytes) 1076248
scalar SingleCell.eNB.cellularNic.mac sentPacketToUpperLayer:count 32964
scalar SingleCell.eNB.cellularNic.mac sentPacketToUpperLayer:sum(packetBytes) 961561
scalar SingleCell.eNB.cellularNic.mac receivedPacketFromLowerLayer:count 134817
scalar SingleCell.eNB.cellularNic.mac receivedPacketFromLowerLayer:sum(packetBytes) 1114284
scalar SingleCell.eNB.cellularNic.mac receivedPacketFromUpperLayer:count 32153
scalar SingleCell.eNB.cellularNic.mac receivedPacketFromUpperLayer:sum(packetBytes) 1923554
scalar SingleCell.eNB.cellularNic.mac macBufferOverFlowD2D:mean -nan
scalar SingleCell.eNB.cellularNic.mac macBufferOverFlowUl:mean -nan
scalar SingleCell.eNB.cellularNic.mac macBufferOverFlowDl:mean -nan
scalar SingleCell.eNB.cellularNic.channelModel[0] measuredSinrUl:mean -nan
scalar SingleCell.eNB.cellularNic.channelModel[0] measuredSinrDl:mean -nan
scalar SingleCell.eNB.cellularNic.channelModel[0] rcvdSinrD2D:mean -nan
scalar SingleCell.eNB.cellularNic.channelModel[0] rcvdSinrUl:mean -nan
scalar SingleCell.eNB.cellularNic.channelModel[0] rcvdSinrDl:mean -nan
scalar SingleCell.eNB.cellularNic packetDropInterfaceDown:count 0
scalar SingleCell.eNB.cellularNic packetDropInterfaceDown:sum(packetBytes) 0
scalar SingleCell.eNB.cellularNic packetDropNoCarrier:count 0
scalar SingleCell.eNB.cellularNic packetDropNoCarrier:sum(packetBytes) 0
scalar SingleCell.eNB.pppIf.queue queueLength:last 1
scalar SingleCell.eNB.pppIf.queue queueLength:max 29
scalar SingleCell.eNB.pppIf.queue queueLength:timeavg 0.00010597752000000374
scalar SingleCell.eNB.pppIf.queue queueBitLength:last 736
scalar SingleCell.eNB.pppIf.queue queueBitLength:max 21344
scalar SingleCell.eNB.pppIf.queue queueBitLength:timeavg 0.07799945472000383
scalar SingleCell.eNB.pppIf.queue outgoingPackets:count 15963
scalar SingleCell.eNB.pppIf.queue outgoingPacketLengths:sum 11748768
scalar SingleCell.eNB.pppIf.queue incomingPackets:count 15964
scalar SingleCell.eNB.pppIf.queue incomingPacketLengths:sum 11749504
scalar SingleCell.eNB.pppIf.queue droppedPacketsQueueOverflow:count 0
scalar SingleCell.eNB.pppIf.queue droppedPacketLengthsQueueOverflow:sum 0
scalar SingleCell.eNB.pppIf.ppp transmissionState:timeavg 0.00012641903999997627
scalar SingleCell.eNB.pppIf.ppp rxPkOk:count 16028
scalar SingleCell.eNB.pppIf.ppp rxPkOk:sum(packetBytes) 1618828
scalar SingleCell.eNB.pppIf.ppp txPk:count 15963
scalar SingleCell.eNB.pppIf.ppp txPk:sum(packetBytes) 1580337
scalar SingleCell.eNB.pppIf.ppp rcvdPkFromHl:count 15963
scalar SingleCell.eNB.pppIf.ppp rcvdPkFromHl:sum(packetBytes) 1468596
scalar SingleCell.eNB.pppIf.ppp passedUpPk:count 16028
scalar SingleCell.eNB.pppIf.ppp passedUpPk:sum(packetBytes) 1506632
scalar SingleCell.eNB.pppIf.ppp packetDropIncorrectlyReceived:count 0
scalar SingleCell.eNB.pppIf.ppp packetDropIncorrectlyReceived:sum(packetBytes) 0
scalar SingleCell.eNB.pppIf.ppp packetDropInterfaceDown:count 0
scalar SingleCell.eNB.pppIf.ppp packetDropInterfaceDown:sum(packetBytes) 0
scalar SingleCell.eNB.pppIf packetDropInterfaceDown:count 0
scalar SingleCell.eNB.pppIf packetDropInterfaceDown:sum(packetBytes) 0
scalar SingleCell.eNB.pppIf packetDropNoCarrier:count 0
scalar SingleCell.eNB.pppIf packetDropNoCarrier:sum(packetBytes) 0
scalar SingleCell.eNB.pppMEHostIf.queue queueLength:last 0
scalar SingleCell.eNB.pppMEHostIf.queue queueLength:max 0
scalar SingleCell.eNB.pppMEHostIf.queue queueLength:timeavg 0
scalar SingleCell.eNB.pppMEHostIf.queue queueBitLength:last 0
scalar SingleCell.eNB.pppMEHostIf.queue queueBitLength:max 0
scalar SingleCell.eNB.pppMEHostIf.queue queueBitLength:timeavg 0
scalar SingleCell.eNB.pppMEHostIf.queue outgoingPackets:count 0
scalar SingleCell.eNB.pppMEHostIf.queue outgoingPacketLengths:sum 0
scalar SingleCell.eNB.pppMEHostIf.queue incomingPackets:count 0
scalar SingleCell.eNB.pppMEHostIf.queue incomingPacketLengths:sum 0
scalar SingleCell.eNB.pppMEHostIf.queue droppedPacketsQueueOverflow:count 0
scalar SingleCell.eNB.pppMEHostIf.queue droppedPacketLengthsQueueOverflow:sum 0
scalar SingleCell.eNB.pppMEHostIf.ppp transmissionState:timeavg 0
scalar SingleCell.eNB.pppMEHostIf.ppp rxPkOk:count 0
scalar SingleCell.eNB.pppMEHostIf.ppp rxPkOk:sum(packetBytes) 0
scalar SingleCell.eNB.pppMEHostIf.ppp txPk:count 0
scalar SingleCell.eNB.pppMEHostIf.ppp txPk:sum(packetBytes) 0
scalar SingleCell.eNB.pppMEHostIf.ppp rcvdPkFromHl:count 0
scalar SingleCell.eNB.pppMEHostIf.ppp rcvdPkFromHl:sum(packetBytes) 0
scalar SingleCell.eNB.pppMEHostIf.ppp passedUpPk:count 0
scalar SingleCell.eNB.pppMEHostIf.ppp passedUpPk:sum(packetBytes) 0
scalar SingleCell.eNB.pppMEHostIf.ppp packetDropIncorrectlyReceived:count 0
scalar SingleCell.eNB.pppMEHostIf.ppp packetDropIncorrectlyReceived:sum(packetBytes) 0
scalar SingleCell.eNB.pppMEHostIf.ppp packetDropInterfaceDown:count 0
scalar SingleCell.eNB.pppMEHostIf.ppp packetDropInterfaceDown:sum(packetBytes) 0
scalar SingleCell.eNB.pppMEHostIf packetDropInterfaceDown:count 0
scalar SingleCell.eNB.pppMEHostIf packetDropInterfaceDown:sum(packetBytes) 0
scalar SingleCell.eNB.pppMEHostIf packetDropNoCarrier:count 0
scalar SingleCell.eNB.pppMEHostIf packetDropNoCarrier:sum(packetBytes) 0
scalar SingleCell.eNB.ipv4.ip packetDropAddressResolutionFailed:count 0
scalar SingleCell.eNB.ipv4.ip packetDropAddressResolutionFailed:sum(packetBytes) 0
scalar SingleCell.eNB.ipv4.ip packetDropHopLimitReached:count 0
scalar SingleCell.eNB.ipv4.ip packetDropHopLimitReached:sum(packetBytes) 0
scalar SingleCell.eNB.ipv4.ip packetDropForwardingDisabled:count 0
scalar SingleCell.eNB.ipv4.ip packetDropForwardingDisabled:sum(packetBytes) 0
scalar SingleCell.eNB.ipv4.ip packetDropNoInterfaceFound:count 0
scalar SingleCell.eNB.ipv4.ip packetDropNoInterfaceFound:sum(packetBytes) 0
scalar SingleCell.eNB.ipv4.ip packetDropNoRouteFound:count 0
scalar SingleCell.eNB.ipv4.ip packetDropNoRouteFound:sum(packetBytes) 0
scalar SingleCell.eNB.ipv4.ip packetDropUndefined:count 0
scalar SingleCell.eNB.ipv4.ip packetDropUndefined:sum(packetBytes) 0
scalar SingleCell.eNB.ipv4.arp arpResolutionFailed:count 0
scalar SingleCell.eNB.ipv4.arp arpResolutionCompleted:count 0
scalar SingleCell.eNB.ipv4.arp arpResolutionInitiated:count 0
scalar SingleCell.eNB.ipv4.arp arpReplySent:count 0
scalar SingleCell.eNB.ipv4.arp arpReplySent:sum(packetBytes) 0
scalar SingleCell.eNB.ipv4.arp arpRequestSent:count 0
scalar SingleCell.eNB.ipv4.arp arpRequestSent:sum(packetBytes) 0
scalar SingleCell.eNB.udp packetReceived:count 16028
scalar SingleCell.eNB.udp packetReceived:sum(packetBytes) 1186072
scalar SingleCell.eNB.udp packetSent:count 15964
scalar SingleCell.eNB.udp packetSent:sum(packetBytes) 1149408
scalar SingleCell.eNB.udp passedUpPk:count 16028
scalar SingleCell.eNB.udp droppedPkWrongPort:count 0
scalar SingleCell.eNB.udp droppedPkBadChecksum:count 0
scalar SingleCell.ue[0].lo[0].lo rcvdPkFromHl:count 0
scalar SingleCell.ue[0].lo[0].lo rcvdPkFromHl:sum(packetBytes) 0
scalar SingleCell.ue[0].lo[0].lo passedUpPk:count 0
scalar SingleCell.ue[0].lo[0].lo passedUpPk:sum(packetBytes) 0
scalar SingleCell.ue[0].lo[0] packetDropInterfaceDown:count 0
scalar SingleCell.ue[0].lo[0] packetDropInterfaceDown:sum(packetBytes) 0
scalar SingleCell.ue[0].lo[0] packetDropNoCarrier:count 0
scalar SingleCell.ue[0].lo[0] packetDropNoCarrier:sum(packetBytes) 0
scalar SingleCell.ue[0].cellularNic.pdcp sentPacketToLowerLayer:count 317
scalar SingleCell.ue[0].cellularNic.pdcp sentPacketToLowerLayer:sum(packetBytes) 18069
scalar SingleCell.ue[0].cellularNic.pdcp sentPacketToUpperLayer:count 317
scalar SingleCell.ue[0].cellularNic.pdcp sentPacketToUpperLayer:sum(packetBytes) 18386
scalar SingleCell.ue[0].cellularNic.pdcp receivedPacketFromLowerLayer:count 317
scalar SingleCell.ue[0].cellularNic.pdcp receivedPacketFromLowerLayer:sum(packetBytes) 18703
scalar SingleCell.ue[0].cellularNic.pdcp receivedPacketFromUpperLayer:count 317
scalar SingleCell.ue[0].cellularNic.pdcp receivedPacketFromUpperLayer:sum(packetBytes) 17752
scalar SingleCell.ue[0].cellularNic.rlc.tm rlcPacketLossUl:mean -nan
scalar SingleCell.ue[0].cellularNic.rlc.tm rlcPacketLossUl:sum 0
scalar SingleCell.ue[0].cellularNic.rlc.tm rlcPacketLossDl:mean -nan
scalar SingleCell.ue[0].cellularNic.rlc.tm rlcPacketLossDl:sum 0
scalar SingleCell.ue[0].cellularNic.rlc.tm sentPacketToLowerLayer:count 0
scalar SingleCell.ue[0].cellularNic.rlc.tm sentPacketToLowerLayer:sum(packetBytes) 0
scalar SingleCell.ue[0].cellularNic.rlc.tm sentPacketToUpperLayer:count 0
scalar SingleCell.ue[0].cellularNic.rlc.tm sentPacketToUpperLayer:sum(packetBytes) 0
scalar SingleCell.ue[0].cellularNic.rlc.tm receivedPacketFromLowerLayer:count 0
scalar SingleCell.ue[0].cellularNic.rlc.tm receivedPacketFromLowerLayer:sum(packetBytes) 0
scalar SingleCell.ue[0].cellularNic.rlc.tm receivedPacketFromUpperLayer:count 0
scalar SingleCell.ue[0].cellularNic.rlc.tm receivedPacketFromUpperLayer:sum(packetBytes) 0
scalar SingleCell.ue[0].cellularNic.rlc.um rlcCellThroughputUl:simu5g_rateavg -nan
scalar SingleCell.ue[0].cellularNic.rlc.um rlcCellThroughputDl:simu5g_rateavg -nan
scalar SingleCell.ue[0].cellularNic.rlc.um rlcPduThroughputUl:simu5g_rateavg 0
scalar SingleCell.ue[0].cellularNic.rlc.um rlcPduThroughputDl:simu5g_rateavg 0
scalar SingleCell.ue[0].cellularNic.rlc.um rlcPduDelayUl:mean 0.0045047318611987413
scalar SingleCell.ue[0].cellularNic.rlc.um rlcPduDelayDl:mean 0.0040000000000000027
scalar SingleCell.ue[0].cellularNic.rlc.um rlcThroughputUl:simu5g_rateavg 1985.0255214482052
scalar SingleCell.ue[0].cellularNic.rlc.um rlcThroughputDl:simu5g_rateavg 2071.9463183330467
scalar SingleCell.ue[0].cellularNic.rlc.um rlcDelayUl:mean 0.010198738170346932
scalar SingleCell.ue[0].cellularNic.rlc.um rlcDelayDl:mean 0.0045683607732744337
scalar SingleCell.ue[0].cellularNic.rlc.um sentPacketToLowerLayer:count 317
scalar SingleCell.ue[0].cellularNic.rlc.um sentPacketToLowerLayer:sum(packetBytes) 18703
scalar SingleCell.ue[0].cellularNic.rlc.um sentPacketToUpperLayer:count 317
scalar SingleCell.ue[0].cellularNic.rlc.um sentPacketToUpperLayer:sum(packetBytes) 18703
scalar SingleCell.ue[0].cellularNic.rlc.um receivedPacketFromLowerLayer:count 317
scalar SingleCell.ue[0].cellularNic.rlc.um receivedPacketFromLowerLayer:sum(packetBytes) 19337
scalar SingleCell.ue[0].cellularNic.rlc.um receivedPacketFromUpperLayer:count 317
scalar SingleCell.ue[0].cellularNic.rlc.um receivedPacketFromUpperLayer:sum(packetBytes) 18069
scalar SingleCell.ue[0].cellularNic.rlc.am rlcPacketLossTotal:mean -nan
scalar SingleCell.ue[0].cellularNic.rlc.am rlcCellThroughputUl:simu5g_rateavg -nan
scalar SingleCell.ue[0].cellularNic.rlc.am rlcCellThroughputDl:simu5g_rateavg -nan
scalar SingleCell.ue[0].cellularNic.rlc.am rlcPduThroughputUl:simu5g_rateavg -nan
scalar SingleCell.ue[0].cellularNic.rlc.am rlcPduThroughputDl:simu5g_rateavg -nan
scalar SingleCell.ue[0].cellularNic.rlc.am rlcPduDelayUl:mean -nan
scalar SingleCell.ue[0].cellularNic.rlc.am rlcPduDelayDl:mean -nan
scalar SingleCell.ue[0].cellularNic.rlc.am rlcThroughputUl:simu5g_rateavg -nan
scalar SingleCell.ue[0].cellularNic.rlc.am rlcThroughputDl:simu5g_rateavg -nan
scalar SingleCell.ue[0].cellularNic.rlc.am rlcDelayUl:mean -nan
scalar SingleCell.ue[0].cellularNic.rlc.am rlcDelayDl:mean -nan
scalar SingleCell.ue[0].cellularNic.rlc.am rlcPduPacketLossUl:mean -nan
scalar SingleCell.ue[0].cellularNic.rlc.am rlcPduPacketLossDl:mean -nan
scalar SingleCell.ue[0].cellularNic.rlc.am rlcPacketLossUl:mean -nan
scalar SingleCell.ue[0].cellularNic.rlc.am rlcPacketLossDl:mean -nan
scalar SingleCell.ue[0].cellularNic.rlc.am rlcCellPacketLossUl:mean -nan
scalar SingleCell.ue[0].cellularNic.rlc.am rlcCellPacketLossDl:mean -nan
scalar SingleCell.ue[0].cellularNic.mac harqTxAttemptsUl:mean 1.0126182965299684
scalar SingleCell.ue[0].cellularNic.mac harqTxAttemptsDl:mean 1
scalar SingleCell.ue[0].cellularNic.mac harqErrorRate_4th_Ul:mean -nan
scalar SingleCell.ue[0].cellularNic.mac harqErrorRate_4th_Dl:mean -nan
scalar SingleCell.ue[0].cellularNic.mac harqErrorRate_3rd_Ul:mean -nan
scalar SingleCell.ue[0].cellularNic.mac harqErrorRate_3rd_Dl:mean -nan
scalar SingleCell.ue[0].cellularNic.mac harqErrorRate_2nd_Ul:mean 0
scalar SingleCell.ue[0].cellularNic.mac harqErrorRate_2nd_Dl:mean -nan
scalar SingleCell.ue[0].cellularNic.mac harqErrorRate_1st_Ul:mean 0.012618296529968454
scalar SingleCell.ue[0].cellularNic.mac harqErrorRate_1st_Dl:mean 0
scalar SingleCell.ue[0].cellularNic.mac harqErrorRateUl:mean 0.012461059190031152
scalar SingleCell.ue[0].cellularNic.mac harqErrorRateDl:mean 0
scalar SingleCell.ue[0].cellularNic.mac macCellPacketLossUl:mean -nan
scalar SingleCell.ue[0].cellularNic.mac macCellPacketLossDl:mean -nan
scalar SingleCell.ue[0].cellularNic.mac macPacketLossUl:mean 0
scalar SingleCell.ue[0].cellularNic.mac macPacketLossDl:mean 0
scalar SingleCell.ue[0].cellularNic.mac macThroughputUl:simu5g_rateavg 2125.4512108430054
scalar SingleCell.ue[0].cellularNic.mac macThroughputDl:simu5g_rateavg 2212.4172551691863
scalar SingleCell.ue[0].cellularNic.mac macDelayUl:mean 0.0045047318611987413
scalar SingleCell.ue[0].cellularNic.mac macDelayDl:mean 0.0040000000000000027
scalar SingleCell.ue[0].cellularNic.mac macCellThroughputUl:simu5g_rateavg -nan
scalar SingleCell.ue[0].cellularNic.mac macCellThroughputDl:simu5g_rateavg -nan
scalar SingleCell.ue[0].cellularNic.mac sentPacketToLowerLayer:count 965
scalar SingleCell.ue[0].cellularNic.mac sentPacketToLowerLayer:sum(packetBytes) 20225
scalar SingleCell.ue[0].cellularNic.mac sentPacketToUpperLayer:count 634
scalar SingleCell.ue[0].cellularNic.mac sentPacketToUpperLayer:sum(packetBytes) 19654
scalar SingleCell.ue[0].cellularNic.mac receivedPacketFromLowerLayer:count 1287
scalar SingleCell.ue[0].cellularNic.mac receivedPacketFromLowerLayer:sum(packetBytes) 21003
scalar SingleCell.ue[0].cellularNic.mac receivedPacketFromUpperLayer:count 634
scalar SingleCell.ue[0].cellularNic.mac receivedPacketFromUpperLayer:sum(packetBytes) 36772
scalar SingleCell.ue[0].cellularNic.mac macBufferOverFlowD2D:mean -nan
scalar SingleCell.ue[0].cellularNic.mac macBufferOverFlowUl:mean -nan
scalar SingleCell.ue[0].cellularNic.mac macBufferOverFlowDl:mean -nan
scalar SingleCell.ue[0].cellularNic.phy distance:mean 133.21587653779665
scalar SingleCell.ue[0].cellularNic.phy averageCqiUl:mean 13.697819314641745
scalar SingleCell.ue[0].cellularNic.phy averageCqiUl:count 321
scalar SingleCell.ue[0].cellularNic.phy averageCqiDl:mean 14.336477987421384
scalar SingleCell.ue[0].cellularNic.phy averageCqiDl:count 318
scalar SingleCell.ue[0].cellularNic.channelModel[0] measuredSinrUl:mean 34.448561585849006
scalar SingleCell.ue[0].cellularNic.channelModel[0] measuredSinrDl:mean 53.156258090998932
scalar SingleCell.ue[0].cellularNic.channelModel[0] rcvdSinrD2D:mean -nan
scalar SingleCell.ue[0].cellularNic.channelModel[0] rcvdSinrUl:mean 37.465525408356108
scalar SingleCell.ue[0].cellularNic.channelModel[0] rcvdSinrDl:mean 54.350978678172879
scalar SingleCell.ue[0].cellularNic packetDropInterfaceDown:count 0
scalar SingleCell.ue[0].cellularNic packetDropInterfaceDown:sum(packetBytes) 0
scalar SingleCell.ue[0].cellularNic packetDropNoCarrier:count 0
scalar SingleCell.ue[0].cellularNic packetDropNoCarrier:sum(packetBytes) 0
scalar SingleCell.ue[0].encap pauseSent:count 0
scalar SingleCell.ue[0].encap pauseSent:sum 0
scalar SingleCell.ue[0].encap decapPk:count 0
scalar SingleCell.ue[0].encap decapPk:sum(packetBytes) 0
scalar SingleCell.ue[0].encap encapPk:count 0
scalar SingleCell.ue[0].encap encapPk:sum(packetBytes) 0
scalar SingleCell.ue[0].ipv4.ip packetDropAddressResolutionFailed:count 0
scalar SingleCell.ue[0].ipv4.ip packetDropAddressResolutionFailed:sum(packetBytes) 0
scalar SingleCell.ue[0].ipv4.ip packetDropHopLimitReached:count 0
scalar SingleCell.ue[0].ipv4.ip packetDropHopLimitReached:sum(packetBytes) 0
scalar SingleCell.ue[0].ipv4.ip packetDropForwardingDisabled:count 0
scalar SingleCell.ue[0].ipv4.ip packetDropForwardingDisabled:sum(packetBytes) 0
scalar SingleCell.ue[0].ipv4.ip packetDropNoInterfaceFound:count 0
scalar SingleCell.ue[0].ipv4.ip packetDropNoInterfaceFound:sum(packetBytes) 0
scalar SingleCell.ue[0].ipv4.ip packetDropNoRouteFound:count 0
scalar SingleCell.ue[0].ipv4.ip packetDropNoRouteFound:sum(packetBytes) 0
scalar SingleCell.ue[0].ipv4.ip packetDropUndefined:count 0
scalar SingleCell.ue[0].ipv4.ip packetDropUndefined:sum(packetBytes) 0
scalar SingleCell.ue[0].ipv4.arp arpResolutionFailed:count 0
scalar SingleCell.ue[0].ipv4.arp arpResolutionCompleted:count 0
scalar SingleCell.ue[0].ipv4.arp arpResolutionInitiated:count 0
scalar SingleCell.ue[0].ipv4.arp arpReplySent:count 0
scalar SingleCell.ue[0].ipv4.arp arpReplySent:sum(packetBytes) 0
scalar SingleCell.ue[0].ipv4.arp arpRequestSent:count 0
scalar SingleCell.ue[0].ipv4.arp arpRequestSent:sum(packetBytes) 0
scalar SingleCell.ue[0].udp packetReceived:count 317
scalar SingleCell.ue[0].udp packetReceived:sum(packetBytes) 12046
scalar SingleCell.ue[0].udp packetSent:count 0
scalar SingleCell.ue[0].udp packetSent:sum(packetBytes) 0
scalar SingleCell.ue[0].udp passedUpPk:count 0
scalar SingleCell.ue[0].udp droppedPkWrongPort:count 317
scalar SingleCell.ue[0].udp droppedPkBadChecksum:count 0
scalar SingleCell.ue[1].lo[0].lo rcvdPkFromHl:count 0
scalar SingleCell.ue[1].lo[0].lo rcvdPkFromHl:sum(packetBytes) 0
scalar SingleCell.ue[1].lo[0].lo passedUpPk:count 0
scalar SingleCell.ue[1].lo[0].lo passedUpPk:sum(packetBytes) 0
scalar SingleCell.ue[1].lo[0] packetDropInterfaceDown:count 0
scalar SingleCell.ue[1].lo[0] packetDropInterfaceDown:sum(packetBytes) 0
scalar SingleCell.ue[1].lo[0] packetDropNoCarrier:count 0
scalar SingleCell.ue[1].lo[0] packetDropNoCarrier:sum(packetBytes) 0
scalar SingleCell.ue[1].cellularNic.pdcp sentPacketToLowerLayer:count 356
scalar SingleCell.ue[1].cellularNic.pdcp sentPacketToLowerLayer:sum(packetBytes) 20292
scalar SingleCell.ue[1].cellularNic.pdcp sentPacketToUpperLayer:count 356
scalar SingleCell.ue[1].cellularNic.pdcp sentPacketToUpperLayer:sum(packetBytes) 20648
scalar SingleCell.ue[1].cellularNic.pdcp receivedPacketFromLowerLayer:count 356
scalar SingleCell.ue[1].cellularNic.pdcp receivedPacketFromLowerLayer:sum(packetBytes) 21004
scalar SingleCell.ue[1].cellularNic.pdcp receivedPacketFromUpperLayer:count 356
scalar SingleCell.ue[1].cellularNic.pdcp receivedPacketFromUpperLayer:sum(packetBytes) 19936
scalar SingleCell.ue[1].cellularNic.rlc.tm rlcPacketLossUl:mean -nan
scalar SingleCell.ue[1].cellularNic.rlc.tm rlcPacketLossUl:sum 0
scalar SingleCell.ue[1].cellularNic.rlc.tm rlcPacketLossDl:mean -nan
scalar SingleCell.ue[1].cellularNic.rlc.tm rlcPacketLossDl:sum 0
scalar SingleCell.ue[1].cellularNic.rlc.tm sentPacketToLowerLayer:count 0
scalar SingleCell.ue[1].cellularNic.rlc.tm sentPacketToLowerLayer:sum(packetBytes) 0
scalar SingleCell.ue[1].cellularNic.rlc.tm sentPacketToUpperLayer:count 0
scalar SingleCell.ue[1].cellularNic.rlc.tm sentPacketToUpperLayer:sum(packetBytes) 0
scalar SingleCell.ue[1].cellularNic.rlc.tm receivedPacketFromLowerLayer:count 0
scalar SingleCell.ue[1].cellularNic.rlc.tm receivedPacketFromLowerLayer:sum(packetBytes) 0
scalar SingleCell.ue[1].cellularNic.rlc.tm receivedPacketFromUpperLayer:count 0
scalar SingleCell.ue[1].cellularNic.rlc.tm receivedPacketFromUpperLayer:sum(packetBytes) 0
scalar SingleCell.ue[1].cellularNic.rlc.um rlcCellThroughputUl:simu5g_rateavg -nan
scalar SingleCell.ue[1].cellularNic.rlc.um rlcCellThroughputDl:simu5g_rateavg -nan
scalar SingleCell.ue[1].cellularNic.rlc.um rlcPduThroughputUl:simu5g_rateavg 0
scalar SingleCell.ue[1].cellularNic.rlc.um rlcPduThroughputDl:simu5g_rateavg 0
scalar SingleCell.ue[1].cellularNic.rlc.um rlcPduDelayUl:mean 0.005352112676056342
scalar SingleCell.ue[1].cellularNic.rlc.um rlcPduDelayDl:mean 0.0040168539325842727
scalar SingleCell.ue[1].cellularNic.rlc.um rlcThroughputUl:simu5g_rateavg 1571.9489079274572
scalar SingleCell.ue[1].cellularNic.rlc.um rlcThroughputDl:simu5g_rateavg 1655.6989512226266
scalar SingleCell.ue[1].cellularNic.rlc.um rlcDelayUl:mean 0.018580281690141007
scalar SingleCell.ue[1].cellularNic.rlc.um rlcDelayDl:mean 0.0047356451389241726
scalar SingleCell.ue[1].cellularNic.rlc.um sentPacketToLowerLayer:count 356
scalar SingleCell.ue[1].cellularNic.rlc.um sentPacketToLowerLayer:sum(packetBytes) 21004
scalar SingleCell.ue[1].cellularNic.rlc.um sentPacketToUpperLayer:count 356
scalar SingleCell.ue[1].cellularNic.rlc.um sentPacketToUpperLayer:sum(packetBytes) 21004
scalar SingleCell.ue[1].cellularNic.rlc.um receivedPacketFromLowerLayer:count 356
scalar SingleCell.ue[1].cellularNic.rlc.um receivedPacketFromLowerLayer:sum(packetBytes) 21716
scalar SingleCell.ue[1].cellularNic.rlc.um receivedPacketFromUpperLayer:count 356
scalar SingleCell.ue[1].cellularNic.rlc.um receivedPacketFromUpperLayer:sum(packetBytes) 20292
scalar SingleCell.ue[1].cellularNic.rlc.am rlcPacketLossTotal:mean -nan
scalar SingleCell.ue[1].cellularNic.rlc.am rlcCellThroughputUl:simu5g_rateavg -nan
scalar SingleCell.ue[1].cellularNic.rlc.am rlcCellThroughputDl:simu5g_rateavg -nan
scalar SingleCell.ue[1].cellularNic.rlc.am rlcPduThroughputUl:simu5g_rateavg -nan
scalar SingleCell.ue[1].cellularNic.rlc.am rlcPduThroughputDl:simu5g_rateavg -nan
scalar SingleCell.ue[1].cellularNic.rlc.am rlcPduDelayUl:mean -nan
scalar SingleCell.ue[1].cellularNic.rlc.am rlcPduDelayDl:mean -nan
scalar SingleCell.ue[1].cellularNic.rlc.am rlcThroughputUl:simu5g_rateavg -nan
scalar SingleCell.ue[1].cellularNic.rlc.am rlcThroughputDl:simu5g_rateavg -nan
scalar SingleCell.ue[1].cellularNic.rlc.am rlcDelayUl:mean -nan
scalar SingleCell.ue[1].cellularNic.rlc.am rlcDelayDl:mean -nan
scalar SingleCell.ue[1].cellularNic.rlc.am rlcPduPacketLossUl:mean -nan
scalar SingleCell.ue[1].cellularNic.rlc.am rlcPduPacketLossDl:mean -nan
scalar SingleCell.ue[1].cellularNic.rlc.am rlcPacketLossUl:mean -nan
scalar SingleCell.ue[1].cellularNic.rlc.am rlcPacketLossDl:mean -nan
scalar SingleCell.ue[1].cellularNic.rlc.am rlcCellPacketLossUl:mean -nan
scalar SingleCell.ue[1].cellularNic.rlc.am rlcCellPacketLossDl:mean -nan
scalar SingleCell.ue[1].cellularNic.mac harqTxAttemptsUl:mean 1.0308988764044944
scalar SingleCell.ue[1].cellularNic.mac harqTxAttemptsDl:mean 1.002808988764045
scalar SingleCell.ue[1].cellularNic.mac harqErrorRate_4th_Ul:mean -nan
scalar SingleCell.ue[1].cellularNic.mac harqErrorRate_4th_Dl:mean -nan
scalar SingleCell.ue[1].cellularNic.mac harqErrorRate_3rd_Ul:mean -nan
scalar SingleCell.ue[1].cellularNic.mac harqErrorRate_3rd_Dl:mean -nan
scalar SingleCell.ue[1].cellularNic.mac harqErrorRate_2nd_Ul:mean 0
scalar SingleCell.ue[1].cellularNic.mac harqErrorRate_2nd_Dl:mean 0
scalar SingleCell.ue[1].cellularNic.mac harqErrorRate_1st_Ul:mean 0.030898876404494381
scalar SingleCell.ue[1].cellularNic.mac harqErrorRate_1st_Dl:mean 0.0028089887640449437
scalar SingleCell.ue[1].cellularNic.mac harqErrorRateUl:mean 0.029972752043596729
scalar SingleCell.ue[1].cellularNic.mac harqErrorRateDl:mean 0.0028011204481792717
scalar SingleCell.ue[1].cellularNic.mac macCellPacketLossUl:mean -nan
scalar SingleCell.ue[1].cellularNic.mac macCellPacketLossDl:mean -nan
scalar SingleCell.ue[1].cellularNic.mac macPacketLossUl:mean 0
scalar SingleCell.ue[1].cellularNic.mac macPacketLossDl:mean 0
scalar SingleCell.ue[1].cellularNic.mac macThroughputUl:simu5g_rateavg 1692.3445653840179
scalar SingleCell.ue[1].cellularNic.mac macThroughputDl:simu5g_rateavg 1767.9497275767033
scalar SingleCell.ue[1].cellularNic.mac macDelayUl:mean 0.0095056179775280941
scalar SingleCell.ue[1].cellularNic.mac macDelayDl:mean 0.0040168539325842727
scalar SingleCell.ue[1].cellularNic.mac macCellThroughputUl:simu5g_rateavg -nan
scalar SingleCell.ue[1].cellularNic.mac macCellThroughputDl:simu5g_rateavg -nan
scalar SingleCell.ue[1].cellularNic.mac sentPacketToLowerLayer:count 1095
scalar SingleCell.ue[1].cellularNic.mac sentPacketToLowerLayer:sum(packetBytes) 23115
scalar SingleCell.ue[1].cellularNic.mac sentPacketToUpperLayer:count 712
scalar SingleCell.ue[1].cellularNic.mac sentPacketToUpperLayer:sum(packetBytes) 22072
scalar SingleCell.ue[1].cellularNic.mac receivedPacketFromLowerLayer:count 1462
scalar SingleCell.ue[1].cellularNic.mac receivedPacketFromLowerLayer:sum(packetBytes) 23596
scalar SingleCell.ue[1].cellularNic.mac receivedPacketFromUpperLayer:count 712
scalar SingleCell.ue[1].cellularNic.mac receivedPacketFromUpperLayer:sum(packetBytes) 41296
scalar SingleCell.ue[1].cellularNic.mac macBufferOverFlowD2D:mean -nan
scalar SingleCell.ue[1].cellularNic.mac macBufferOverFlowUl:mean -nan
scalar SingleCell.ue[1].cellularNic.mac macBufferOverFlowDl:mean -nan
scalar SingleCell.ue[1].cellularNic.phy distance:mean 185.58944150636097
scalar SingleCell.ue[1].cellularNic.phy averageCqiUl:mean 11.975476839237057
scalar SingleCell.ue[1].cellularNic.phy averageCqiUl:count 367
scalar SingleCell.ue[1].cellularNic.phy averageCqiDl:mean 14.308123249299721
scalar SingleCell.ue[1].cellularNic.phy averageCqiDl:count 357
scalar SingleCell.ue[1].cellularNic.channelModel[0] measuredSinrUl:mean 26.083462015875583
scalar SingleCell.ue[1].cellularNic.channelModel[0] measuredSinrDl:mean 40.567151638689218
scalar SingleCell.ue[1].cellularNic.channelModel[0] rcvdSinrD2D:mean -nan
scalar SingleCell.ue[1].cellularNic.channelModel[0] rcvdSinrUl:mean 23.598629062156256
scalar SingleCell.ue[1].cellularNic.channelModel[0] rcvdSinrDl:mean 42.696832582253677
scalar SingleCell.ue[1].cellularNic packetDropInterfaceDown:count 0
scalar SingleCell.ue[1].cellularNic packetDropInterfaceDown:sum(packetBytes) 0
scalar SingleCell.ue[1].cellularNic packetDropNoCarrier:count 0
scalar SingleCell.ue[1].cellularNic packetDropNoCarrier:sum(packetBytes) 0
scalar SingleCell.ue[1].encap pauseSent:count 0
scalar SingleCell.ue[1].encap pauseSent:sum 0
scalar SingleCell.ue[1].encap decapPk:count 0
scalar SingleCell.ue[1].encap decapPk:sum(packetBytes) 0
scalar SingleCell.ue[1].encap encapPk:count 0
scalar SingleCell.ue[1].encap encapPk:sum(packetBytes) 0
scalar SingleCell.ue[1].ipv4.ip packetDropAddressResolutionFailed:count 0
scalar SingleCell.ue[1].ipv4.ip packetDropAddressResolutionFailed:sum(packetBytes) 0
scalar SingleCell.ue[1].ipv4.ip packetDropHopLimitReached:count 0
scalar SingleCell.ue[1].ipv4.ip packetDropHopLimitReached:sum(packetBytes) 0
scalar SingleCell.ue[1].ipv4.ip packetDropForwardingDisabled:count 0
scalar SingleCell.ue[1].ipv4.ip packetDropForwardingDisabled:sum(packetBytes) 0
scalar SingleCell.ue[1].ipv4.ip packetDropNoInterfaceFound:count 0
scalar SingleCell.ue[1].ipv4.ip packetDropNoInterfaceFound:sum(packetBytes) 0
scalar SingleCell.ue[1].ipv4.ip packetDropNoRouteFound:count 0
scalar SingleCell.ue[1].ipv4.ip packetDropNoRouteFound:sum(packetBytes) 0
scalar SingleCell.ue[1].ipv4.ip packetDropUndefined:count 0
scalar SingleCell.ue[1].ipv4.ip packetDropUndefined:sum(packetBytes) 0
scalar SingleCell.ue[1].ipv4.arp arpResolutionFailed:count 0
scalar SingleCell.ue[1].ipv4.arp arpResolutionCompleted:count 0
scalar SingleCell.ue[1].ipv4.arp arpResolutionInitiated:count 0
scalar SingleCell.ue[1].ipv4.arp arpReplySent:count 0
scalar SingleCell.ue[1].ipv4.arp arpReplySent:sum(packetBytes) 0
scalar SingleCell.ue[1].ipv4.arp arpRequestSent:count 0
scalar SingleCell.ue[1].ipv4.arp arpRequestSent:sum(packetBytes) 0
scalar SingleCell.ue[1].udp packetReceived:count 356
scalar SingleCell.ue[1].udp packetReceived:sum(packetBytes) 13528
scalar SingleCell.ue[1].udp packetSent:count 0
scalar SingleCell.ue[1].udp packetSent:sum(packetBytes) 0
scalar SingleCell.ue[1].udp passedUpPk:count 0
scalar SingleCell.ue[1].udp droppedPkWrongPort:count 356
scalar SingleCell.ue[1].udp droppedPkBadChecksum:count 0
scalar SingleCell.ue[2].lo[0].lo rcvdPkFromHl:count 0
scalar SingleCell.ue[2].lo[0].lo rcvdPkFromHl:sum(packetBytes) 0
scalar SingleCell.ue[2].lo[0].lo passedUpPk:count 0
scalar SingleCell.ue[2].lo[0].lo passedUpPk:sum(packetBytes) 0
scalar SingleCell.ue[2].lo[0] packetDropInterfaceDown:count 0
scalar SingleCell.ue[2].lo[0] packetDropInterfaceDown:sum(packetBytes) 0
scalar SingleCell.ue[2].lo[0] packetDropNoCarrier:count 0
scalar SingleCell.ue[2].lo[0] packetDropNoCarrier:sum(packetBytes) 0
scalar SingleCell.ue[2].cellularNic.pdcp sentPacketToLowerLayer:count 246
scalar SingleCell.ue[2].cellularNic.pdcp sentPacketToLowerLayer:sum(packetBytes) 14022
scalar SingleCell.ue[2].cellularNic.pdcp sentPacketToUpperLayer:count 246
scalar SingleCell.ue[2].cellularNic.pdcp sentPacketToUpperLayer:sum(packetBytes) 14268
scalar SingleCell.ue[2].cellularNic.pdcp receivedPacketFromLowerLayer:count 246
scalar SingleCell.ue[2].cellularNic.pdcp receivedPacketFromLowerLayer:sum(packetBytes) 14514
scalar SingleCell.ue[2].cellularNic.pdcp receivedPacketFromUpperLayer:count 246
scalar SingleCell.ue[2].cellularNic.pdcp receivedPacketFromUpperLayer:sum(packetBytes) 13776
scalar SingleCell.ue[2].cellularNic.rlc.tm rlcPacketLossUl:mean -nan
scalar SingleCell.ue[2].cellularNic.rlc.tm rlcPacketLossUl:sum 0
scalar SingleCell.ue[2].cellularNic.rlc.tm rlcPacketLossDl:mean -nan
scalar SingleCell.ue[2].cellularNic.rlc.tm rlcPacketLossDl:sum 0
scalar SingleCell.ue[2].cellularNic.rlc.tm sentPacketToLowerLayer:count 0
scalar SingleCell.ue[2].cellularNic.rlc.tm sentPacketToLowerLayer:sum(packetBytes) 0
scalar SingleCell.ue[2].cellularNic.rlc.tm sentPacketToUpperLayer:count 0
scalar SingleCell.ue[2].cellularNic.rlc.tm sentPacketToUpperLayer:sum(packetBytes) 0
scalar SingleCell.ue[2].cellularNic.rlc.tm receivedPacketFromLowerLayer:count 0
scalar SingleCell.ue[2].cellularNic.rlc.tm receivedPacketFromLowerLayer:sum(packetBytes) 0
scalar SingleCell.ue[2].cellularNic.rlc.tm receivedPacketFromUpperLayer:count 0
scalar SingleCell.ue[2].cellularNic.rlc.tm receivedPacketFromUpperLayer:sum(packetBytes) 0
scalar SingleCell.ue[2].cellularNic.rlc.um rlcCellThroughputUl:simu5g_rateavg -nan
scalar SingleCell.ue[2].cellularNic.rlc.um rlcCellThroughputDl:simu5g_rateavg -nan
scalar SingleCell.ue[2].cellularNic.rlc.um rlcPduThroughputUl:simu5g_rateavg 0
scalar SingleCell.ue[2].cellularNic.rlc.um rlcPduThroughputDl:simu5g_rateavg 0
scalar SingleCell.ue[2].cellularNic.rlc.um rlcPduDelayUl:mean 0.0040000000000000027
scalar SingleCell.ue[2].cellularNic.rlc.um rlcPduDelayDl:mean 0.0041951219512195151
scalar SingleCell.ue[2].cellularNic.rlc.um rlcThroughputUl:simu5g_rateavg 1368.372672363452
scalar SingleCell.ue[2].cellularNic.rlc.um rlcThroughputDl:simu5g_rateavg 1428.7824331554057
scalar SingleCell.ue[2].cellularNic.rlc.um rlcDelayUl:mean 0.0092560975609755555
scalar SingleCell.ue[2].cellularNic.rlc.um rlcDelayDl:mean 0.0049825171115650399
scalar SingleCell.ue[2].cellularNic.rlc.um sentPacketToLowerLayer:count 246
scalar SingleCell.ue[2].cellularNic.rlc.um sentPacketToLowerLayer:sum(packetBytes) 14514
scalar SingleCell.ue[2].cellularNic.rlc.um sentPacketToUpperLayer:count 246
scalar SingleCell.ue[2].cellularNic.rlc.um sentPacketToUpperLayer:sum(packetBytes) 14514
scalar SingleCell.ue[2].cellularNic.rlc.um receivedPacketFromLowerLayer:count 246
scalar SingleCell.ue[2].cellularNic.rlc.um receivedPacketFromLowerLayer:sum(packetBytes) 15006
scalar SingleCell.ue[2].cellularNic.rlc.um receivedPacketFromUpperLayer:count 246
scalar SingleCell.ue[2].cellularNic.rlc.um receivedPacketFromUpperLayer:sum(packetBytes) 14022
scalar SingleCell.ue[2].cellularNic.rlc.am rlcPacketLossTotal:mean -nan
scalar SingleCell.ue[2].cellularNic.rlc.am rlcCellThroughputUl:simu5g_rateavg -nan
scalar SingleCell.ue[2].cellularNic.rlc.am rlcCellThroughputDl:simu5g_rateavg -nan
scalar SingleCell.ue[2].cellularNic.rlc.am rlcPduThroughputUl:simu5g_rateavg -nan
scalar SingleCell.ue[2].cellularNic.rlc.am rlcPduThroughputDl:simu5g_rateavg -nan
scalar SingleCell.ue[2].cellularNic.rlc.am rlcPduDelayUl:mean -nan
scalar SingleCell.ue[2].cellularNic.rlc.am rlcPduDelayDl:mean -nan
scalar SingleCell.ue[2].cellularNic.rlc.am rlcThroughputUl:simu5g_rateavg -nan
scalar SingleCell.ue[2].cellularNic.rlc.am rlcThroughputDl:simu5g_rateavg -nan
scalar SingleCell.ue[2].cellularNic.rlc.am rlcDelayUl:mean -nan
scalar SingleCell.ue[2].cellularNic.rlc.am rlcDelayDl:mean -nan
scalar SingleCell.ue[2].cellularNic.rlc.am rlcPduPacketLossUl:mean -nan
scalar SingleCell.ue[2].cellularNic.rlc.am rlcPduPacketLossDl:mean -nan
scalar SingleCell.ue[2].cellularNic.rlc.am rlcPacketLossUl:mean -nan
scalar SingleCell.ue[2].cellularNic.rlc.am rlcPacketLossDl:mean -nan
scalar SingleCell.ue[2].cellularNic.rlc.am rlcCellPacketLossUl:mean -nan
scalar SingleCell.ue[2].cellularNic.rlc.am rlcCellPacketLossDl:mean -nan
scalar SingleCell.ue[2].cellularNic.mac harqTxAttemptsUl:mean 1
scalar SingleCell.ue[2].cellularNic.mac harqTxAttemptsDl:mean 1.032520325203252
scalar SingleCell.ue[2].cellularNic.mac harqErrorRate_4th_Ul:mean -nan
scalar SingleCell.ue[2].cellularNic.mac harqErrorRate_4th_Dl:mean -nan
scalar SingleCell.ue[2].cellularNic.mac harqErrorRate_3rd_Ul:mean -nan
scalar SingleCell.ue[2].cellularNic.mac harqErrorRate_3rd_Dl:mean -nan
scalar SingleCell.ue[2].cellularNic.mac harqErrorRate_2nd_Ul:mean -nan
scalar SingleCell.ue[2].cellularNic.mac harqErrorRate_2nd_Dl:mean 0
scalar SingleCell.ue[2].cellularNic.mac harqErrorRate_1st_Ul:mean 0
scalar SingleCell.ue[2].cellularNic.mac harqErrorRate_1st_Dl:mean 0.032520325203252036
scalar SingleCell.ue[2].cellularNic.mac harqErrorRateUl:mean 0
scalar SingleCell.ue[2].cellularNic.mac harqErrorRateDl:mean 0.031496062992125984
scalar SingleCell.ue[2].cellularNic.mac macCellPacketLossUl:mean -nan
scalar SingleCell.ue[2].cellularNic.mac macCellPacketLossDl:mean -nan
scalar SingleCell.ue[2].cellularNic.mac macPacketLossUl:mean 0
scalar SingleCell.ue[2].cellularNic.mac macPacketLossDl:mean 0
scalar SingleCell.ue[2].cellularNic.mac macThroughputUl:simu5g_rateavg 1464.4041535805834
scalar SingleCell.ue[2].cellularNic.mac macThroughputDl:simu5g_rateavg 1525.6490387930614
scalar SingleCell.ue[2].cellularNic.mac macDelayUl:mean 0.0040000000000000027
scalar SingleCell.ue[2].cellularNic.mac macDelayDl:mean 0.0041951219512195151
scalar SingleCell.ue[2].cellularNic.mac macCellThroughputUl:simu5g_rateavg -nan
scalar SingleCell.ue[2].cellularNic.mac macCellThroughputDl:simu5g_rateavg -nan
scalar SingleCell.ue[2].cellularNic.mac sentPacketToLowerLayer:count 750
scalar SingleCell.ue[2].cellularNic.mac sentPacketToLowerLayer:sum(packetBytes) 15510
scalar SingleCell.ue[2].cellularNic.mac sentPacketToUpperLayer:count 492
scalar SingleCell.ue[2].cellularNic.mac sentPacketToUpperLayer:sum(packetBytes) 15252
scalar SingleCell.ue[2].cellularNic.mac receivedPacketFromLowerLayer:count 996
scalar SingleCell.ue[2].cellularNic.mac receivedPacketFromLowerLayer:sum(packetBytes) 16744
scalar SingleCell.ue[2].cellularNic.mac receivedPacketFromUpperLayer:count 492
scalar SingleCell.ue[2].cellularNic.mac receivedPacketFromUpperLayer:sum(packetBytes) 28536
scalar SingleCell.ue[2].cellularNic.mac macBufferOverFlowD2D:mean -nan
scalar SingleCell.ue[2].cellularNic.mac macBufferOverFlowUl:mean -nan
scalar SingleCell.ue[2].cellularNic.mac macBufferOverFlowDl:mean -nan
scalar SingleCell.ue[2].cellularNic.phy distance:mean 256.48415189632129
scalar SingleCell.ue[2].cellularNic.phy averageCqiUl:mean 12.731707317073171
scalar SingleCell.ue[2].cellularNic.phy averageCqiUl:count 246
scalar SingleCell.ue[2].cellularNic.phy averageCqiDl:mean 13.137795275590552
scalar SingleCell.ue[2].cellularNic.phy averageCqiDl:count 254
scalar SingleCell.ue[2].cellularNic.channelModel[0] measuredSinrUl:mean 29.276801062834991
scalar SingleCell.ue[2].cellularNic.channelModel[0] measuredSinrDl:mean 34.671685168997335
scalar SingleCell.ue[2].cellularNic.channelModel[0] rcvdSinrD2D:mean -nan
scalar SingleCell.ue[2].cellularNic.channelModel[0] rcvdSinrUl:mean 34.786587778014784
scalar SingleCell.ue[2].cellularNic.channelModel[0] rcvdSinrDl:mean 31.680222420201023
scalar SingleCell.ue[2].cellularNic packetDropInterfaceDown:count 0
scalar SingleCell.ue[2].cellularNic packetDropInterfaceDown:sum(packetBytes) 0
scalar SingleCell.ue[2].cellularNic packetDropNoCarrier:count 0
scalar SingleCell.ue[2].cellularNic packetDropNoCarrier:sum(packetBytes) 0
scalar SingleCell.ue[2].encap pauseSent:count 0
scalar SingleCell.ue[2].encap pauseSent:sum 0
scalar SingleCell.ue[2].encap decapPk:count 0
scalar SingleCell.ue[2].encap decapPk:sum(packetBytes) 0
scalar SingleCell.ue[2].encap encapPk:count 0
scalar SingleCell.ue[2].encap encapPk:sum(packetBytes) 0
scalar SingleCell.ue[2].ipv4.ip packetDropAddressResolutionFailed:count 0
scalar SingleCell.ue[2].ipv4.ip packetDropAddressResolutionFailed:sum(packetBytes) 0
scalar SingleCell.ue[2].ipv4.ip packetDropHopLimitReached:count 0
scalar SingleCell.ue[2].ipv4.ip packetDropHopLimitReached:sum(packetBytes) 0
scalar SingleCell.ue[2].ipv4.ip packetDropForwardingDisabled:count 0
scalar SingleCell.ue[2].ipv4.ip packetDropForwardingDisabled:sum(packetBytes) 0
scalar SingleCell.ue[2].ipv4.ip packetDropNoInterfaceFound:count 0
scalar SingleCell.ue[2].ipv4.ip packetDropNoInterfaceFound:sum(packetBytes) 0
scalar SingleCell.ue[2].ipv4.ip packetDropNoRouteFound:count 0
scalar SingleCell.ue[2].ipv4.ip packetDropNoRouteFound:sum(packetBytes) 0
scalar SingleCell.ue[2].ipv4.ip packetDropUndefined:count 0
scalar SingleCell.ue[2].ipv4.ip packetDropUndefined:sum(packetBytes) 0
scalar SingleCell.ue[2].ipv4.arp arpResolutionFailed:count 0
scalar SingleCell.ue[2].ipv4.arp arpResolutionCompleted:count 0
scalar SingleCell.ue[2].ipv4.arp arpResolutionInitiated:count 0
scalar SingleCell.ue[2].ipv4.arp arpReplySent:count 0
scalar SingleCell.ue[2].ipv4.arp arpReplySent:sum(packetBytes) 0
scalar SingleCell.ue[2].ipv4.arp arpRequestSent:count 0
scalar SingleCell.ue[2].ipv4.arp arpRequestSent:sum(packetBytes) 0
scalar SingleCell.ue[2].udp packetReceived:count 246
scalar SingleCell.ue[2].udp packetReceived:sum(packetBytes) 9348
scalar SingleCell.ue[2].udp packetSent:count 0
scalar SingleCell.ue[2].udp packetSent:sum(packetBytes) 0
scalar SingleCell.ue[2].udp passedUpPk:count 0
scalar SingleCell.ue[2].udp droppedPkWrongPort:count 246
scalar SingleCell.ue[2].udp droppedPkBadChecksum:count 0
scalar SingleCell.ue[3].lo[0].lo rcvdPkFromHl:count 0
scalar SingleCell.ue[3].lo[0].lo rcvdPkFromHl:sum(packetBytes) 0
scalar SingleCell.ue[3].lo[0].lo passedUpPk:count 0
scalar SingleCell.ue[3].lo[0].lo passedUpPk:sum(packetBytes) 0
scalar SingleCell.ue[3].lo[0] packetDropInterfaceDown:count 0
scalar SingleCell.ue[3].lo[0] packetDropInterfaceDown:sum(packetBytes) 0
scalar SingleCell.ue[3].lo[0] packetDropNoCarrier:count 0
scalar SingleCell.ue[3].lo[0] packetDropNoCarrier:sum(packetBytes) 0
scalar SingleCell.ue[3].cellularNic.pdcp sentPacketToLowerLayer:count 461
scalar SingleCell.ue[3].cellularNic.pdcp sentPacketToLowerLayer:sum(packetBytes) 26277
scalar SingleCell.ue[3].cellularNic.pdcp sentPacketToUpperLayer:count 461
scalar SingleCell.ue[3].cellularNic.pdcp sentPacketToUpperLayer:sum(packetBytes) 26738
scalar SingleCell.ue[3].cellularNic.pdcp receivedPacketFromLowerLayer:count 461
scalar SingleCell.ue[3].cellularNic.pdcp receivedPacketFromLowerLayer:sum(packetBytes) 27199
scalar SingleCell.ue[3].cellularNic.pdcp receivedPacketFromUpperLayer:count 461
scalar SingleCell.ue[3].cellularNic.pdcp receivedPacketFromUpperLayer:sum(packetBytes) 25816
scalar SingleCell.ue[3].cellularNic.rlc.tm rlcPacketLossUl:mean -nan
scalar SingleCell.ue[3].cellularNic.rlc.tm rlcPacketLossUl:sum 0
scalar SingleCell.ue[3].cellularNic.rlc.tm rlcPacketLossDl:mean -nan
scalar SingleCell.ue[3].cellularNic.rlc.tm rlcPacketLossDl:sum 0
scalar SingleCell.ue[3].cellularNic.rlc.tm sentPacketToLowerLayer:count 0
scalar SingleCell.ue[3].cellularNic.rlc.tm sentPacketToLowerLayer:sum(packetBytes) 0
scalar SingleCell.ue[3].cellularNic.rlc.tm sentPacketToUpperLayer:count 0
scalar SingleCell.ue[3].cellularNic.rlc.tm sentPacketToUpperLayer:sum(packetBytes) 0
scalar SingleCell.ue[3].cellularNic.rlc.tm receivedPacketFromLowerLayer:count 0
scalar SingleCell.ue[3].cellularNic.rlc.tm receivedPacketFromLowerLayer:sum(packetBytes) 0
scalar SingleCell.ue[3].cellularNic.rlc.tm receivedPacketFromUpperLayer:count 0
scalar SingleCell.ue[3].cellularNic.rlc.tm receivedPacketFromUpperLayer:sum(packetBytes) 0
scalar SingleCell.ue[3].cellularNic.rlc.um rlcCellThroughputUl:simu5g_rateavg -nan
scalar SingleCell.ue[3].cellularNic.rlc.um rlcCellThroughputDl:simu5g_rateavg -nan
scalar SingleCell.ue[3].cellularNic.rlc.um rlcPduThroughputUl:simu5g_rateavg 0
scalar SingleCell.ue[3].cellularNic.rlc.um rlcPduThroughputDl:simu5g_rateavg 0
scalar SingleCell.ue[3].cellularNic.rlc.um rlcPduDelayUl:mean 0.004695652173913047
scalar SingleCell.ue[3].cellularNic.rlc.um rlcPduDelayDl:mean 0.0040650759219088969
scalar SingleCell.ue[3].cellularNic.rlc.um rlcThroughputUl:simu5g_rateavg 2403.2091687600946
scalar SingleCell.ue[3].cellularNic.rlc.um rlcThroughputDl:simu5g_rateavg 2502.2850126751655
scalar SingleCell.ue[3].cellularNic.rlc.um rlcDelayUl:mean 0.010649999999999996
scalar SingleCell.ue[3].cellularNic.rlc.um rlcDelayDl:mean 0.0043682700860737641
scalar SingleCell.ue[3].cellularNic.rlc.um sentPacketToLowerLayer:count 461
scalar SingleCell.ue[3].cellularNic.rlc.um sentPacketToLowerLayer:sum(packetBytes) 27199
scalar SingleCell.ue[3].cellularNic.rlc.um sentPacketToUpperLayer:count 461
scalar SingleCell.ue[3].cellularNic.rlc.um sentPacketToUpperLayer:sum(packetBytes) 27199
scalar SingleCell.ue[3].cellularNic.rlc.um receivedPacketFromLowerLayer:count 461
scalar SingleCell.ue[3].cellularNic.rlc.um receivedPacketFromLowerLayer:sum(packetBytes) 28121
scalar SingleCell.ue[3].cellularNic.rlc.um receivedPacketFromUpperLayer:count 461
scalar SingleCell.ue[3].cellularNic.rlc.um receivedPacketFromUpperLayer:sum(packetBytes) 26277
scalar SingleCell.ue[3].cellularNic.rlc.am rlcPacketLossTotal:mean -nan
scalar SingleCell.ue[3].cellularNic.rlc.am rlcCellThroughputUl:simu5g_rateavg -nan
scalar SingleCell.ue[3].cellularNic.rlc.am rlcCellThroughputDl:simu5g_rateavg -nan
scalar SingleCell.ue[3].cellularNic.rlc.am rlcPduThroughputUl:simu5g_rateavg -nan
scalar SingleCell.ue[3].cellularNic.rlc.am rlcPduThroughputDl:simu5g_rateavg -nan
scalar SingleCell.ue[3].cellularNic.rlc.am rlcPduDelayUl:mean -nan
scalar SingleCell.ue[3].cellularNic.rlc.am rlcPduDelayDl:mean -nan
scalar SingleCell.ue[3].cellularNic.rlc.am rlcThroughputUl:simu5g_rateavg -nan
scalar SingleCell.ue[3].cellularNic.rlc.am rlcThroughputDl:simu5g_rateavg -nan
scalar SingleCell.ue[3].cellularNic.rlc.am rlcDelayUl:mean -nan
scalar SingleCell.ue[3].cellularNic.rlc.am rlcDelayDl:mean -nan
scalar SingleCell.ue[3].cellularNic.rlc.am rlcPduPacketLossUl:mean -nan
scalar SingleCell.ue[3].cellularNic.rlc.am rlcPduPacketLossDl:mean -nan
scalar SingleCell.ue[3].cellularNic.rlc.am rlcPacketLossUl:mean -nan
scalar SingleCell.ue[3].cellularNic.rlc.am rlcPacketLossDl:mean -nan
scalar SingleCell.ue[3].cellularNic.rlc.am rlcCellPacketLossUl:mean -nan
scalar SingleCell.ue[3].cellularNic.rlc.am rlcCellPacketLossDl:mean -nan
scalar SingleCell.ue[3].cellularNic.mac harqTxAttemptsUl:mean 1.0152173913043478
scalar SingleCell.ue[3].cellularNic.mac harqTxAttemptsDl:mean 1.0108459869848156
scalar SingleCell.ue[3].cellularNic.mac harqErrorRate_4th_Ul:mean -nan
scalar SingleCell.ue[3].cellularNic.mac harqErrorRate_4th_Dl:mean -nan
scalar SingleCell.ue[3].cellularNic.mac harqErrorRate_3rd_Ul:mean -nan
scalar SingleCell.ue[3].cellularNic.mac harqErrorRate_3rd_Dl:mean -nan
scalar SingleCell.ue[3].cellularNic.mac harqErrorRate_2nd_Ul:mean 0
scalar SingleCell.ue[3].cellularNic.mac harqErrorRate_2nd_Dl:mean 0
scalar SingleCell.ue[3].cellularNic.mac harqErrorRate_1st_Ul:mean 0.015217391304347827
scalar SingleCell.ue[3].cellularNic.mac harqErrorRate_1st_Dl:mean 0.010845986984815618
scalar SingleCell.ue[3].cellularNic.mac harqErrorRateUl:mean 0.014989293361884369
scalar SingleCell.ue[3].cellularNic.mac harqErrorRateDl:mean 0.010729613733905579
scalar SingleCell.ue[3].cellularNic.mac macCellPacketLossUl:mean -nan
scalar SingleCell.ue[3].cellularNic.mac macCellPacketLossDl:mean -nan
scalar SingleCell.ue[3].cellularNic.mac macPacketLossUl:mean 0
scalar SingleCell.ue[3].cellularNic.mac macPacketLossDl:mean 0
scalar SingleCell.ue[3].cellularNic.mac macThroughputUl:simu5g_rateavg 2574.092152880261
scalar SingleCell.ue[3].cellularNic.mac macThroughputDl:simu5g_rateavg 2671.9314542124653
scalar SingleCell.ue[3].cellularNic.mac macDelayUl:mean 0.004695652173913047
scalar SingleCell.ue[3].cellularNic.mac macDelayDl:mean 0.0040650759219088969
scalar SingleCell.ue[3].cellularNic.mac macCellThroughputUl:simu5g_rateavg -nan
scalar SingleCell.ue[3].cellularNic.mac macCellThroughputDl:simu5g_rateavg -nan
scalar SingleCell.ue[3].cellularNic.mac sentPacketToLowerLayer:count 1409
scalar SingleCell.ue[3].cellularNic.mac sentPacketToLowerLayer:sum(packetBytes) 29489
scalar SingleCell.ue[3].cellularNic.mac sentPacketToUpperLayer:count 922
scalar SingleCell.ue[3].cellularNic.mac sentPacketToUpperLayer:sum(packetBytes) 28582
scalar SingleCell.ue[3].cellularNic.mac receivedPacketFromLowerLayer:count 1876
scalar SingleCell.ue[3].cellularNic.mac receivedPacketFromLowerLayer:sum(packetBytes) 30768
scalar SingleCell.ue[3].cellularNic.mac receivedPacketFromUpperLayer:count 922
scalar SingleCell.ue[3].cellularNic.mac receivedPacketFromUpperLayer:sum(packetBytes) 53476
scalar SingleCell.ue[3].cellularNic.mac macBufferOverFlowD2D:mean -nan
scalar SingleCell.ue[3].cellularNic.mac macBufferOverFlowUl:mean -nan
scalar SingleCell.ue[3].cellularNic.mac macBufferOverFlowDl:mean -nan
scalar SingleCell.ue[3].cellularNic.phy distance:mean 266.38972781796315
scalar SingleCell.ue[3].cellularNic.phy averageCqiUl:mean 12.502136752136753
scalar SingleCell.ue[3].cellularNic.phy averageCqiUl:count 468
scalar SingleCell.ue[3].cellularNic.phy averageCqiDl:mean 14.59656652360515
scalar SingleCell.ue[3].cellularNic.phy averageCqiDl:count 466
scalar SingleCell.ue[3].cellularNic.channelModel[0] measuredSinrUl:mean 27.84528976740927
scalar SingleCell.ue[3].cellularNic.channelModel[0] measuredSinrDl:mean 44.028388759638958
scalar SingleCell.ue[3].cellularNic.channelModel[0] rcvdSinrD2D:mean -nan
scalar SingleCell.ue[3].cellularNic.channelModel[0] rcvdSinrUl:mean 30.405427914367657
scalar SingleCell.ue[3].cellularNic.channelModel[0] rcvdSinrDl:mean 42.465996368911554
scalar SingleCell.ue[3].cellularNic packetDropInterfaceDown:count 0
scalar SingleCell.ue[3].cellularNic packetDropInterfaceDown:sum(packetBytes) 0
scalar SingleCell.ue[3].cellularNic packetDropNoCarrier:count 0
scalar SingleCell.ue[3].cellularNic packetDropNoCarrier:sum(packetBytes) 0
scalar SingleCell.ue[3].encap pauseSent:count 0
scalar SingleCell.ue[3].encap pauseSent:sum 0
scalar SingleCell.ue[3].encap decapPk:count 0
scalar SingleCell.ue[3].encap decapPk:sum(packetBytes) 0
scalar SingleCell.ue[3].encap encapPk:count 0
scalar SingleCell.ue[3].encap encapPk:sum(packetBytes) 0
scalar SingleCell.ue[3].ipv4.ip packetDropAddressResolutionFailed:count 0
scalar SingleCell.ue[3].ipv4.ip packetDropAddressResolutionFailed:sum(packetBytes) 0
scalar SingleCell.ue[3].ipv4.ip packetDropHopLimitReached:count 0
scalar SingleCell.ue[3].ipv4.ip packetDropHopLimitReached:sum(packetBytes) 0
scalar SingleCell.ue[3].ipv4.ip packetDropForwardingDisabled:count 0
scalar SingleCell.ue[3].ipv4.ip packetDropForwardingDisabled:sum(packetBytes) 0
scalar SingleCell.ue[3].ipv4.ip packetDropNoInterfaceFound:count 0
scalar SingleCell.ue[3].ipv4.ip packetDropNoInterfaceFound:sum(packetBytes) 0
scalar SingleCell.ue[3].ipv4.ip packetDropNoRouteFound:count 0
scalar SingleCell.ue[3].ipv4.ip packetDropNoRouteFound:sum(packetBytes) 0
scalar SingleCell.ue[3].ipv4.ip packetDropUndefined:count 0
scalar SingleCell.ue[3].ipv4.ip packetDropUndefined:sum(packetBytes) 0
scalar SingleCell.ue[3].ipv4.arp arpResolutionFailed:count 0
scalar SingleCell.ue[3].ipv4.arp arpResolutionCompleted:count 0
scalar SingleCell.ue[3].ipv4.arp arpResolutionInitiated:count 0
scalar SingleCell.ue[3].ipv4.arp arpReplySent:count 0
scalar SingleCell.ue[3].ipv4.arp arpReplySent:sum(packetBytes) 0
scalar SingleCell.ue[3].ipv4.arp arpRequestSent:count 0
scalar SingleCell.ue[3].ipv4.arp arpRequestSent:sum(packetBytes) 0
scalar SingleCell.ue[3].udp packetReceived:count 461
scalar SingleCell.ue[3].udp packetReceived:sum(packetBytes) 17518
scalar SingleCell.ue[3].udp packetSent:count 0
scalar SingleCell.ue[3].udp packetSent:sum(packetBytes) 0
scalar SingleCell.ue[3].udp passedUpPk:count 0
scalar SingleCell.ue[3].udp droppedPkWrongPort:count 461
scalar SingleCell.ue[3].udp droppedPkBadChecksum:count 0
scalar SingleCell.ue[4].lo[0].lo rcvdPkFromHl:count 0
scalar SingleCell.ue[4].lo[0].lo rcvdPkFromHl:sum(packetBytes) 0
scalar SingleCell.ue[4].lo[0].lo passedUpPk:count 0
scalar SingleCell.ue[4].lo[0].lo passedUpPk:sum(packetBytes) 0
scalar SingleCell.ue[4].lo[0] packetDropInterfaceDown:count 0
scalar SingleCell.ue[4].lo[0] packetDropInterfaceDown:sum(packetBytes) 0
scalar SingleCell.ue[4].lo[0] packetDropNoCarrier:count 0
scalar SingleCell.ue[4].lo[0] packetDropNoCarrier:sum(packetBytes) 0
scalar SingleCell.ue[4].cellularNic.pdcp sentPacketToLowerLayer:count 300
scalar SingleCell.ue[4].cellularNic.pdcp sentPacketToLowerLayer:sum(packetBytes) 17100
scalar SingleCell.ue[4].cellularNic.pdcp sentPacketToUpperLayer:count 300
scalar SingleCell.ue[4].cellularNic.pdcp sentPacketToUpperLayer:sum(packetBytes) 17400
scalar SingleCell.ue[4].cellularNic.pdcp receivedPacketFromLowerLayer:count 300
scalar SingleCell.ue[4].cellularNic.pdcp receivedPacketFromLowerLayer:sum(packetBytes) 17700
scalar SingleCell.ue[4].cellularNic.pdcp receivedPacketFromUpperLayer:count 300
scalar SingleCell.ue[4].cellularNic.pdcp receivedPacketFromUpperLayer:sum(packetBytes) 16800
scalar SingleCell.ue[4].cellularNic.rlc.tm rlcPacketLossUl:mean -nan
scalar SingleCell.ue[4].cellularNic.rlc.tm rlcPacketLossUl:sum 0
scalar SingleCell.ue[4].cellularNic.rlc.tm rlcPacketLossDl:mean -nan
scalar SingleCell.ue[4].cellularNic.rlc.tm rlcPacketLossDl:sum 0
scalar SingleCell.ue[4].cellularNic.rlc.tm sentPacketToLowerLayer:count 0
scalar SingleCell.ue[4].cellularNic.rlc.tm sentPacketToLowerLayer:sum(packetBytes) 0
scalar SingleCell.ue[4].cellularNic.rlc.tm sentPacketToUpperLayer:count 0
scalar SingleCell.ue[4].cellularNic.rlc.tm sentPacketToUpperLayer:sum(packetBytes) 0
scalar SingleCell.ue[4].cellularNic.rlc.tm receivedPacketFromLowerLayer:count 0
scalar SingleCell.ue[4].cellularNic.rlc.tm receivedPacketFromLowerLayer:sum(packetBytes) 0
scalar SingleCell.ue[4].cellularNic.rlc.tm receivedPacketFromUpperLayer:count 0
scalar SingleCell.ue[4].cellularNic.rlc.tm receivedPacketFromUpperLayer:sum(packetBytes) 0
scalar SingleCell.ue[4].cellularNic.rlc.um rlcCellThroughputUl:simu5g_rateavg -nan
[...]
scalar SingleCell.ue[49].cellularNic.mac sentPacketToUpperLayer:vector(packetBytes):endtime nan
scalar SingleCell.ue[49].cellularNic.mac sentPacketToLowerLayer:vector(packetBytes):count 0
scalar SingleCell.ue[49].cellularNic.mac sentPacketToLowerLayer:vector(packetBytes):sum 0
scalar SingleCell.ue[49].cellularNic.mac sentPacketToLowerLayer:vector(packetBytes):sumweights 0
scalar SingleCell.ue[49].cellularNic.mac sentPacketToLowerLayer:vector(packetBytes):mean -nan
scalar SingleCell.ue[49].cellularNic.mac sentPacketToLowerLayer:vector(packetBytes):stddev nan
scalar SingleCell.ue[49].cellularNic.mac sentPacketToLowerLayer:vector(packetBytes):min inf
scalar SingleCell.ue[49].cellularNic.mac sentPacketToLowerLayer:vector(packetBytes):max -inf
scalar SingleCell.ue[49].cellularNic.mac sentPacketToLowerLayer:vector(packetBytes):starttime nan
scalar SingleCell.ue[49].cellularNic.mac sentPacketToLowerLayer:vector(packetBytes):endtime nan
scalar SingleCell.ue[49].cellularNic.phy distance:vector:count 0
scalar SingleCell.ue[49].cellularNic.phy distance:vector:sum 0
scalar SingleCell.ue[49].cellularNic.phy distance:vector:sumweights 0
scalar SingleCell.ue[49].cellularNic.phy distance:vector:mean -nan
scalar SingleCell.ue[49].cellularNic.phy distance:vector:stddev nan
scalar SingleCell.ue[49].cellularNic.phy distance:vector:min inf
scalar SingleCell.ue[49].cellularNic.phy distance:vector:max -inf
scalar SingleCell.ue[49].cellularNic.phy distance:vector:starttime nan
scalar SingleCell.ue[49].cellularNic.phy distance:vector:endtime nan
scalar SingleCell.ue[49].cellularNic.phy servingCell:vector:count 0
scalar SingleCell.ue[49].cellularNic.phy servingCell:vector:sum 0
scalar SingleCell.ue[49].cellularNic.phy servingCell:vector:sumweights 0
scalar SingleCell.ue[49].cellularNic.phy servingCell:vector:mean -nan
scalar SingleCell.ue[49].cellularNic.phy servingCell:vector:stddev nan
scalar SingleCell.ue[49].cellularNic.phy servingCell:vector:min inf
scalar SingleCell.ue[49].cellularNic.phy servingCell:vector:max -inf
scalar SingleCell.ue[49].cellularNic.phy servingCell:vector:starttime nan
scalar SingleCell.ue[49].cellularNic.phy servingCell:vector:endtime nan
scalar SingleCell.ue[49].cellularNic.phy averageCqiDl:vector:count 0
scalar SingleCell.ue[49].cellularNic.phy averageCqiDl:vector:sum 0
scalar SingleCell.ue[49].cellularNic.phy averageCqiDl:vector:sumweights 0
scalar SingleCell.ue[49].cellularNic.phy averageCqiDl:vector:mean -nan
scalar SingleCell.ue[49].cellularNic.phy averageCqiDl:vector:stddev nan
scalar SingleCell.ue[49].cellularNic.phy averageCqiDl:vector:min inf
scalar SingleCell.ue[49].cellularNic.phy averageCqiDl:vector:max -inf
scalar SingleCell.ue[49].cellularNic.phy averageCqiDl:vector:starttime nan
scalar SingleCell.ue[49].cellularNic.phy averageCqiDl:vector:endtime nan
scalar SingleCell.ue[49].cellularNic.phy averageCqiUl:vector:count 0
scalar SingleCell.ue[49].cellularNic.phy averageCqiUl:vector:sum 0
scalar SingleCell.ue[49].cellularNic.phy averageCqiUl:vector:sumweights 0
scalar SingleCell.ue[49].cellularNic.phy averageCqiUl:vector:mean -nan
scalar SingleCell.ue[49].cellularNic.phy averageCqiUl:vector:stddev nan
scalar SingleCell.ue[49].cellularNic.phy averageCqiUl:vector:min inf
scalar SingleCell.ue[49].cellularNic.phy averageCqiUl:vector:max -inf
scalar SingleCell.ue[49].cellularNic.phy averageCqiUl:vector:starttime nan
scalar SingleCell.ue[49].cellularNic.phy averageCqiUl:vector:endtime nan
scalar SingleCell.ue[49].cellularNic.channelModel[0] rcvdSinrDl:vector:count 0
scalar SingleCell.ue[49].cellularNic.channelModel[0] rcvdSinrDl:vector:sum 0
scalar SingleCell.ue[49].cellularNic.channelModel[0] rcvdSinrDl:vector:sumweights 0
scalar SingleCell.ue[49].cellularNic.channelModel[0] rcvdSinrDl:vector:mean -nan
scalar SingleCell.ue[49].cellularNic.channelModel[0] rcvdSinrDl:vector:stddev nan
scalar SingleCell.ue[49].cellularNic.channelModel[0] rcvdSinrDl:vector:min inf
scalar SingleCell.ue[49].cellularNic.channelModel[0] rcvdSinrDl:vector:max -inf
scalar SingleCell.ue[49].cellularNic.channelModel[0] rcvdSinrDl:vector:starttime nan
scalar SingleCell.ue[49].cellularNic.channelModel[0] rcvdSinrDl:vector:endtime nan
scalar SingleCell.ue[49].cellularNic.channelModel[0] rcvdSinrUl:vector:count 0
scalar SingleCell.ue[49].cellularNic.channelModel[0] rcvdSinrUl:vector:sum 0
scalar SingleCell.ue[49].cellularNic.channelModel[0] rcvdSinrUl:vector:sumweights 0
scalar SingleCell.ue[49].cellularNic.channelModel[0] rcvdSinrUl:vector:mean -nan
scalar SingleCell.ue[49].cellularNic.channelModel[0] rcvdSinrUl:vector:stddev nan
scalar SingleCell.ue[49].cellularNic.channelModel[0] rcvdSinrUl:vector:min inf
scalar SingleCell.ue[49].cellularNic.channelModel[0] rcvdSinrUl:vector:max -inf
scalar SingleCell.ue[49].cellularNic.channelModel[0] rcvdSinrUl:vector:starttime nan
scalar SingleCell.ue[49].cellularNic.channelModel[0] rcvdSinrUl:vector:endtime nan
scalar SingleCell.ue[49].cellularNic.channelModel[0] rcvdSinrD2D:vector:count 0
scalar SingleCell.ue[49].cellularNic.channelModel[0] rcvdSinrD2D:vector:sum 0
scalar SingleCell.ue[49].cellularNic.channelModel[0] rcvdSinrD2D:vector:sumweights 0
scalar SingleCell.ue[49].cellularNic.channelModel[0] rcvdSinrD2D:vector:mean -nan
scalar SingleCell.ue[49].cellularNic.channelModel[0] rcvdSinrD2D:vector:stddev nan
scalar SingleCell.ue[49].cellularNic.channelModel[0] rcvdSinrD2D:vector:min inf
scalar SingleCell.ue[49].cellularNic.channelModel[0] rcvdSinrD2D:vector:max -inf
scalar SingleCell.ue[49].cellularNic.channelModel[0] rcvdSinrD2D:vector:starttime nan
scalar SingleCell.ue[49].cellularNic.channelModel[0] rcvdSinrD2D:vector:endtime nan
scalar SingleCell.ue[49].cellularNic.channelModel[0] measuredSinrDl:vector:count 0
scalar SingleCell.ue[49].cellularNic.channelModel[0] measuredSinrDl:vector:sum 0
scalar SingleCell.ue[49].cellularNic.channelModel[0] measuredSinrDl:vector:sumweights 0
scalar SingleCell.ue[49].cellularNic.channelModel[0] measuredSinrDl:vector:mean -nan
scalar SingleCell.ue[49].cellularNic.channelModel[0] measuredSinrDl:vector:stddev nan
scalar SingleCell.ue[49].cellularNic.channelModel[0] measuredSinrDl:vector:min inf
scalar SingleCell.ue[49].cellularNic.channelModel[0] measuredSinrDl:vector:max -inf
scalar SingleCell.ue[49].cellularNic.channelModel[0] measuredSinrDl:vector:starttime nan
scalar SingleCell.ue[49].cellularNic.channelModel[0] measuredSinrDl:vector:endtime nan
scalar SingleCell.ue[49].cellularNic.channelModel[0] measuredSinrUl:vector:count 0
scalar SingleCell.ue[49].cellularNic.channelModel[0] measuredSinrUl:vector:sum 0
scalar SingleCell.ue[49].cellularNic.channelModel[0] measuredSinrUl:vector:sumweights 0
scalar SingleCell.ue[49].cellularNic.channelModel[0] measuredSinrUl:vector:mean -nan
scalar SingleCell.ue[49].cellularNic.channelModel[0] measuredSinrUl:vector:stddev nan
scalar SingleCell.ue[49].cellularNic.channelModel[0] measuredSinrUl:vector:min inf
scalar SingleCell.ue[49].cellularNic.channelModel[0] measuredSinrUl:vector:max -inf
scalar SingleCell.ue[49].cellularNic.channelModel[0] measuredSinrUl:vector:starttime nan
scalar SingleCell.ue[49].cellularNic.channelModel[0] measuredSinrUl:vector:endtime nan
scalar SingleCell.ue[49].cellularNic packetDropInterfaceDown:vector(packetBytes):count 0
scalar SingleCell.ue[49].cellularNic packetDropInterfaceDown:vector(packetBytes):sum 0
scalar SingleCell.ue[49].cellularNic packetDropInterfaceDown:vector(packetBytes):sumweights 0
scalar SingleCell.ue[49].cellularNic packetDropInterfaceDown:vector(packetBytes):mean -nan
scalar SingleCell.ue[49].cellularNic packetDropInterfaceDown:vector(packetBytes):stddev nan
scalar SingleCell.ue[49].cellularNic packetDropInterfaceDown:vector(packetBytes):min inf
scalar SingleCell.ue[49].cellularNic packetDropInterfaceDown:vector(packetBytes):max -inf
scalar SingleCell.ue[49].cellularNic packetDropInterfaceDown:vector(packetBytes):starttime nan
scalar SingleCell.ue[49].cellularNic packetDropInterfaceDown:vector(packetBytes):endtime nan
scalar SingleCell.ue[49].cellularNic packetDropNoCarrier:vector(packetBytes):count 0
scalar SingleCell.ue[49].cellularNic packetDropNoCarrier:vector(packetBytes):sum 0
scalar SingleCell.ue[49].cellularNic packetDropNoCarrier:vector(packetBytes):sumweights 0
scalar SingleCell.ue[49].cellularNic packetDropNoCarrier:vector(packetBytes):mean -nan
scalar SingleCell.ue[49].cellularNic packetDropNoCarrier:vector(packetBytes):stddev nan
scalar SingleCell.ue[49].cellularNic packetDropNoCarrier:vector(packetBytes):min inf
scalar SingleCell.ue[49].cellularNic packetDropNoCarrier:vector(packetBytes):max -inf
scalar SingleCell.ue[49].cellularNic packetDropNoCarrier:vector(packetBytes):starttime nan
scalar SingleCell.ue[49].cellularNic packetDropNoCarrier:vector(packetBytes):endtime nan
scalar SingleCell.ue[49].encap encapPk:vector(packetBytes):count 0
scalar SingleCell.ue[49].encap encapPk:vector(packetBytes):sum 0
scalar SingleCell.ue[49].encap encapPk:vector(packetBytes):sumweights 0
scalar SingleCell.ue[49].encap encapPk:vector(packetBytes):mean -nan
scalar SingleCell.ue[49].encap encapPk:vector(packetBytes):stddev nan
scalar SingleCell.ue[49].encap encapPk:vector(packetBytes):min inf
scalar SingleCell.ue[49].encap encapPk:vector(packetBytes):max -inf
scalar SingleCell.ue[49].encap encapPk:vector(packetBytes):starttime nan
scalar SingleCell.ue[49].encap encapPk:vector(packetBytes):endtime nan
scalar SingleCell.ue[49].encap decapPk:vector(packetBytes):count 0
scalar SingleCell.ue[49].encap decapPk:vector(packetBytes):sum 0
scalar SingleCell.ue[49].encap decapPk:vector(packetBytes):sumweights 0
scalar SingleCell.ue[49].encap decapPk:vector(packetBytes):mean -nan
scalar SingleCell.ue[49].encap decapPk:vector(packetBytes):stddev nan
scalar SingleCell.ue[49].encap decapPk:vector(packetBytes):min inf
scalar SingleCell.ue[49].encap decapPk:vector(packetBytes):max -inf
scalar SingleCell.ue[49].encap decapPk:vector(packetBytes):starttime nan
scalar SingleCell.ue[49].encap decapPk:vector(packetBytes):endtime nan
scalar SingleCell.ue[49].encap pauseSent:vector:count 0
scalar SingleCell.ue[49].encap pauseSent:vector:sum 0
scalar SingleCell.ue[49].encap pauseSent:vector:sumweights 0
scalar SingleCell.ue[49].encap pauseSent:vector:mean -nan
scalar SingleCell.ue[49].encap pauseSent:vector:stddev nan
scalar SingleCell.ue[49].encap pauseSent:vector:min inf
scalar SingleCell.ue[49].encap pauseSent:vector:max -inf
scalar SingleCell.ue[49].encap pauseSent:vector:starttime nan
scalar SingleCell.ue[49].encap pauseSent:vector:endtime nan
scalar SingleCell.ue[49].ipv4.ip packetDropAddressResolutionFailed:vector(packetBytes):count 0
scalar SingleCell.ue[49].ipv4.ip packetDropAddressResolutionFailed:vector(packetBytes):sum 0
scalar SingleCell.ue[49].ipv4.ip packetDropAddressResolutionFailed:vector(packetBytes):sumweights 0
scalar SingleCell.ue[49].ipv4.ip packetDropAddressResolutionFailed:vector(packetBytes):mean -nan
scalar SingleCell.ue[49].ipv4.ip packetDropAddressResolutionFailed:vector(packetBytes):stddev nan
scalar SingleCell.ue[49].ipv4.ip packetDropAddressResolutionFailed:vector(packetBytes):min inf
scalar SingleCell.ue[49].ipv4.ip packetDropAddressResolutionFailed:vector(packetBytes):max -inf
scalar SingleCell.ue[49].ipv4.ip packetDropAddressResolutionFailed:vector(packetBytes):starttime nan
scalar SingleCell.ue[49].ipv4.ip packetDropAddressResolutionFailed:vector(packetBytes):endtime nan
scalar SingleCell.ue[49].ipv4.ip packetDropHopLimitReached:vector(packetBytes):count 0
scalar SingleCell.ue[49].ipv4.ip packetDropHopLimitReached:vector(packetBytes):sum 0
scalar SingleCell.ue[49].ipv4.ip packetDropHopLimitReached:vector(packetBytes):sumweights 0
scalar SingleCell.ue[49].ipv4.ip packetDropHopLimitReached:vector(packetBytes):mean -nan
scalar SingleCell.ue[49].ipv4.ip packetDropHopLimitReached:vector(packetBytes):stddev nan
scalar SingleCell.ue[49].ipv4.ip packetDropHopLimitReached:vector(packetBytes):min inf
scalar SingleCell.ue[49].ipv4.ip packetDropHopLimitReached:vector(packetBytes):max -inf
scalar SingleCell.ue[49].ipv4.ip packetDropHopLimitReached:vector(packetBytes):starttime nan
scalar SingleCell.ue[49].ipv4.ip packetDropHopLimitReached:vector(packetBytes):endtime nan
scalar SingleCell.ue[49].ipv4.ip packetDropForwardingDisabled:vector(packetBytes):count 0
scalar SingleCell.ue[49].ipv4.ip packetDropForwardingDisabled:vector(packetBytes):sum 0
scalar SingleCell.ue[49].ipv4.ip packetDropForwardingDisabled:vector(packetBytes):sumweights 0
scalar SingleCell.ue[49].ipv4.ip packetDropForwardingDisabled:vector(packetBytes):mean -nan
scalar SingleCell.ue[49].ipv4.ip packetDropForwardingDisabled:vector(packetBytes):stddev nan
scalar SingleCell.ue[49].ipv4.ip packetDropForwardingDisabled:vector(packetBytes):min inf
scalar SingleCell.ue[49].ipv4.ip packetDropForwardingDisabled:vector(packetBytes):max -inf
scalar SingleCell.ue[49].ipv4.ip packetDropForwardingDisabled:vector(packetBytes):starttime nan
scalar SingleCell.ue[49].ipv4.ip packetDropForwardingDisabled:vector(packetBytes):endtime nan
scalar SingleCell.ue[49].ipv4.ip packetDropNoInterfaceFound:vector(packetBytes):count 0
scalar SingleCell.ue[49].ipv4.ip packetDropNoInterfaceFound:vector(packetBytes):sum 0
scalar SingleCell.ue[49].ipv4.ip packetDropNoInterfaceFound:vector(packetBytes):sumweights 0
scalar SingleCell.ue[49].ipv4.ip packetDropNoInterfaceFound:vector(packetBytes):mean -nan
scalar SingleCell.ue[49].ipv4.ip packetDropNoInterfaceFound:vector(packetBytes):stddev nan
scalar SingleCell.ue[49].ipv4.ip packetDropNoInterfaceFound:vector(packetBytes):min inf
scalar SingleCell.ue[49].ipv4.ip packetDropNoInterfaceFound:vector(packetBytes):max -inf
scalar SingleCell.ue[49].ipv4.ip packetDropNoInterfaceFound:vector(packetBytes):starttime nan
scalar SingleCell.ue[49].ipv4.ip packetDropNoInterfaceFound:vector(packetBytes):endtime nan
scalar SingleCell.ue[49].ipv4.ip packetDropNoRouteFound:vector(packetBytes):count 0
scalar SingleCell.ue[49].ipv4.ip packetDropNoRouteFound:vector(packetBytes):sum 0
scalar SingleCell.ue[49].ipv4.ip packetDropNoRouteFound:vector(packetBytes):sumweights 0
scalar SingleCell.ue[49].ipv4.ip packetDropNoRouteFound:vector(packetBytes):mean -nan
scalar SingleCell.ue[49].ipv4.ip packetDropNoRouteFound:vector(packetBytes):stddev nan
scalar SingleCell.ue[49].ipv4.ip packetDropNoRouteFound:vector(packetBytes):min inf
scalar SingleCell.ue[49].ipv4.ip packetDropNoRouteFound:vector(packetBytes):max -inf
scalar SingleCell.ue[49].ipv4.ip packetDropNoRouteFound:vector(packetBytes):starttime nan
scalar SingleCell.ue[49].ipv4.ip packetDropNoRouteFound:vector(packetBytes):endtime nan
scalar SingleCell.ue[49].ipv4.ip packetDropUndefined:vector(packetBytes):count 0
scalar SingleCell.ue[49].ipv4.ip packetDropUndefined:vector(packetBytes):sum 0
scalar SingleCell.ue[49].ipv4.ip packetDropUndefined:vector(packetBytes):sumweights 0
scalar SingleCell.ue[49].ipv4.ip packetDropUndefined:vector(packetBytes):mean -nan
scalar SingleCell.ue[49].ipv4.ip packetDropUndefined:vector(packetBytes):stddev nan
scalar SingleCell.ue[49].ipv4.ip packetDropUndefined:vector(packetBytes):min inf
scalar SingleCell.ue[49].ipv4.ip packetDropUndefined:vector(packetBytes):max -inf
scalar SingleCell.ue[49].ipv4.ip packetDropUndefined:vector(packetBytes):starttime nan
scalar SingleCell.ue[49].ipv4.ip packetDropUndefined:vector(packetBytes):endtime nan
scalar SingleCell.ue[49].ipv4.arp arpRequestSent:vector(packetBytes):count 0
scalar SingleCell.ue[49].ipv4.arp arpRequestSent:vector(packetBytes):sum 0
scalar SingleCell.ue[49].ipv4.arp arpRequestSent:vector(packetBytes):sumweights 0
scalar SingleCell.ue[49].ipv4.arp arpRequestSent:vector(packetBytes):mean -nan
scalar SingleCell.ue[49].ipv4.arp arpRequestSent:vector(packetBytes):stddev nan
scalar SingleCell.ue[49].ipv4.arp arpRequestSent:vector(packetBytes):min inf
scalar SingleCell.ue[49].ipv4.arp arpRequestSent:vector(packetBytes):max -inf
scalar SingleCell.ue[49].ipv4.arp arpRequestSent:vector(packetBytes):starttime nan
scalar SingleCell.ue[49].ipv4.arp arpRequestSent:vector(packetBytes):endtime nan
scalar SingleCell.ue[49].ipv4.arp arpReplySent:vector(packetBytes):count 0
scalar SingleCell.ue[49].ipv4.arp arpReplySent:vector(packetBytes):sum 0
scalar SingleCell.ue[49].ipv4.arp arpReplySent:vector(packetBytes):sumweights 0
scalar SingleCell.ue[49].ipv4.arp arpReplySent:vector(packetBytes):mean -nan
scalar SingleCell.ue[49].ipv4.arp arpReplySent:vector(packetBytes):stddev nan
scalar SingleCell.ue[49].ipv4.arp arpReplySent:vector(packetBytes):min inf
scalar SingleCell.ue[49].ipv4.arp arpReplySent:vector(packetBytes):max -inf
scalar SingleCell.ue[49].ipv4.arp arpReplySent:vector(packetBytes):starttime nan
scalar SingleCell.ue[49].ipv4.arp arpReplySent:vector(packetBytes):endtime nan
scalar SingleCell.ue[49].udp packetSent:vector(packetBytes):count 0
scalar SingleCell.ue[49].udp packetSent:vector(packetBytes):sum 0
scalar SingleCell.ue[49].udp packetSent:vector(packetBytes):sumweights 0
scalar SingleCell.ue[49].udp packetSent:vector(packetBytes):mean -nan
scalar SingleCell.ue[49].udp packetSent:vector(packetBytes):stddev nan
scalar SingleCell.ue[49].udp packetSent:vector(packetBytes):min inf
scalar SingleCell.ue[49].udp packetSent:vector(packetBytes):max -inf
scalar SingleCell.ue[49].udp packetSent:vector(packetBytes):starttime nan
scalar SingleCell.ue[49].udp packetSent:vector(packetBytes):endtime nan
scalar SingleCell.ue[49].udp packetReceived:vector(packetBytes):count 0
scalar SingleCell.ue[49].udp packetReceived:vector(packetBytes):sum 0
scalar SingleCell.ue[49].udp packetReceived:vector(packetBytes):sumweights 0
scalar SingleCell.ue[49].udp packetReceived:vector(packetBytes):mean -nan
scalar SingleCell.ue[49].udp packetReceived:vector(packetBytes):stddev nan
scalar SingleCell.ue[49].udp packetReceived:vector(packetBytes):min inf
scalar SingleCell.ue[49].udp packetReceived:vector(packetBytes):max -inf
scalar SingleCell.ue[49].udp packetReceived:vector(packetBytes):starttime nan
scalar SingleCell.ue[49].udp packetReceived:vector(packetBytes):endtime nan
scalar SingleCell.ue[49].udp passedUpPk:vector(count):count 0
scalar SingleCell.ue[49].udp passedUpPk:vector(count):sum 0
scalar SingleCell.ue[49].udp passedUpPk:vector(count):sumweights 0
scalar SingleCell.ue[49].udp passedUpPk:vector(count):mean -nan
scalar SingleCell.ue[49].udp passedUpPk:vector(count):stddev nan
scalar SingleCell.ue[49].udp passedUpPk:vector(count):min inf
scalar SingleCell.ue[49].udp passedUpPk:vector(count):max -inf
scalar SingleCell.ue[49].udp passedUpPk:vector(count):starttime nan
scalar SingleCell.ue[49].udp passedUpPk:vector(count):endtime nan
scalar SingleCell.ue[49].udp droppedPkWrongPort:vector(count):count 0
scalar SingleCell.ue[49].udp droppedPkWrongPort:vector(count):sum 0
scalar SingleCell.ue[49].udp droppedPkWrongPort:vector(count):sumweights 0
scalar SingleCell.ue[49].udp droppedPkWrongPort:vector(count):mean -nan
scalar SingleCell.ue[49].udp droppedPkWrongPort:vector(count):stddev nan
scalar SingleCell.ue[49].udp droppedPkWrongPort:vector(count):min inf
scalar SingleCell.ue[49].udp droppedPkWrongPort:vector(count):max -inf
scalar SingleCell.ue[49].udp droppedPkWrongPort:vector(count):starttime nan
scalar SingleCell.ue[49].udp droppedPkWrongPort:vector(count):endtime nan
scalar SingleCell.ue[49].udp droppedPkBadChecksum:vector(count):count 0
scalar SingleCell.ue[49].udp droppedPkBadChecksum:vector(count):sum 0
scalar SingleCell.ue[49].udp droppedPkBadChecksum:vector(count):sumweights 0
scalar SingleCell.ue[49].udp droppedPkBadChecksum:vector(count):mean -nan
scalar SingleCell.ue[49].udp droppedPkBadChecksum:vector(count):stddev nan
scalar SingleCell.ue[49].udp droppedPkBadChecksum:vector(count):min inf
scalar SingleCell.ue[49].udp droppedPkBadChecksum:vector(count):max -inf
scalar SingleCell.ue[49].udp droppedPkBadChecksum:vector(count):starttime nan
scalar SingleCell.ue[49].udp droppedPkBadChecksum:vector(count):endtime nan

