version 3
run VoIP-DL-0-20260710-11:28:37-707519
attr configname VoIP-DL
attr datetime 20260710-11:28:37
attr datetimef 20260710-112837
attr experiment VoIP-DL
attr inifile omnetpp.ini
attr iterationvars $numUEs=5
attr iterationvarsd numUEs=5
attr iterationvarsf numUEs=5-
attr measurement $numUEs=5
attr network simu5g.simulations.lte.networks.SingleCell
attr processid 707519
attr repetition 0
attr replication #0
attr resultdir results
attr runnumber 0
attr seedset 0
itervar numUEs 5
config **.param-recording false
config image-path /home/andras/projects/Simu5G-fork/simu5g-fork/images
config output-scalar-file results/omnetpp.ini-VoIP-DL-#0.sca
config output-scalar-precision 17
config output-vector-file results/omnetpp.ini-VoIP-DL-#0.vec
config output-vector-precision 17
config record-eventlog false
config sim-time-limit 20s
config network simu5g.simulations.lte.networks.SingleCell
config sim-time-limit 20s
config *.configurator.dumpAddresses true
config **.mac.schedulingDisciplineDl "\"MAXCI\""
config **.mac.schedulingDisciplineUl "\"MAXCI\""
config *.ue[*].numApps 1
config *.numUe 5
config **.vector-recording true
config *.server.numApps 5
config **.ue[*].servingNodeId 1
config *.ue[*].mobility.initialMovementHeading "uniform(0deg, 360deg)"
config *.ue[*].mobility.constraintAreaMaxX 1000m
config *.ue[*].mobility.constraintAreaMaxY 1000m
config *.ue[*].mobility.constraintAreaMinX 0m
config *.ue[*].mobility.constraintAreaMinY 0m
config *.ue[*].mobility.initFromDisplayString false
config *.ue[*].mobility.initialX uniform(0m,600m)
config *.ue[*].mobility.initialY uniform(0m,600m)
config *.eNB.mobility.initialX 300m
config *.eNB.mobility.initialY 300m
config *.ue[*].mobility.initialZ 0m
config *.ue[*].mobility.speed 1mps
config *.ue[*].mobility.typename LinearMobility
config *.ue[*].app[0].typename VoipReceiver
config *.ue[*].app[0].localPort 3000
config *.server.app[*].typename VoipSender
config *.server.app[*].packetSize 40B
config *.server.app[*].destAddress "\"ue[\"+string(ancestorIndex(0))+\"]\""
config *.server.app[*].destPort 3000
config *.server.app[*].localPort 3088+ancestorIndex(0)
config *.server.app[*].startTime uniform(0s,0.02s)
config sim-time-limit 20s
config output-scalar-file results/VoIP-DL/0.sca
config output-vector-file results/VoIP-DL/0.vec
config seed-set 0
config **.vector-recording false
config **.mobility.constraintAreaMinZ 0m
config **.mobility.constraintAreaMaxZ 0m
config **.mobility.initFromDisplayString true
config **.numBands 6
config **.ueTxPower 26dBm
config **.eNodeBTxPower 40dBm
config *.configurator.config "xmldoc(\"./demo.xml\")"

scalar SingleCell.server.lo[0].lo rcvdPkFromHl:count 0
scalar SingleCell.server.lo[0].lo rcvdPkFromHl:sum(packetBytes) 0
scalar SingleCell.server.lo[0].lo passedUpPk:count 0
scalar SingleCell.server.lo[0].lo passedUpPk:sum(packetBytes) 0
scalar SingleCell.server.lo[0] packetDropInterfaceDown:count 0
scalar SingleCell.server.lo[0] packetDropInterfaceDown:sum(packetBytes) 0
scalar SingleCell.server.lo[0] packetDropNoCarrier:count 0
scalar SingleCell.server.lo[0] packetDropNoCarrier:sum(packetBytes) 0
scalar SingleCell.server.ppp[0].queue queueLength:last 0
scalar SingleCell.server.ppp[0].queue queueLength:max 0
scalar SingleCell.server.ppp[0].queue queueLength:timeavg 0
scalar SingleCell.server.ppp[0].queue queueBitLength:last 0
scalar SingleCell.server.ppp[0].queue queueBitLength:max 0
scalar SingleCell.server.ppp[0].queue queueBitLength:timeavg 0
scalar SingleCell.server.ppp[0].queue outgoingPackets:count 2869
scalar SingleCell.server.ppp[0].queue outgoingPacketLengths:sum 1560736
scalar SingleCell.server.ppp[0].queue incomingPackets:count 2869
scalar SingleCell.server.ppp[0].queue incomingPacketLengths:sum 1560736
scalar SingleCell.server.ppp[0].queue droppedPacketsQueueOverflow:count 0
scalar SingleCell.server.ppp[0].queue droppedPacketLengthsQueueOverflow:sum 0
scalar SingleCell.server.ppp[0].ppp transmissionState:timeavg 8.6069999999996941e-06
scalar SingleCell.server.ppp[0].ppp rxPkOk:count 0
scalar SingleCell.server.ppp[0].ppp rxPkOk:sum(packetBytes) 0
scalar SingleCell.server.ppp[0].ppp txPk:count 2869
scalar SingleCell.server.ppp[0].ppp txPk:sum(packetBytes) 215175
scalar SingleCell.server.ppp[0].ppp rcvdPkFromHl:count 2869
scalar SingleCell.server.ppp[0].ppp rcvdPkFromHl:sum(packetBytes) 195092
scalar SingleCell.server.ppp[0].ppp passedUpPk:count 0
scalar SingleCell.server.ppp[0].ppp passedUpPk:sum(packetBytes) 0
scalar SingleCell.server.ppp[0].ppp packetDropIncorrectlyReceived:count 0
scalar SingleCell.server.ppp[0].ppp packetDropIncorrectlyReceived:sum(packetBytes) 0
scalar SingleCell.server.ppp[0].ppp packetDropInterfaceDown:count 0
scalar SingleCell.server.ppp[0].ppp packetDropInterfaceDown:sum(packetBytes) 0
scalar SingleCell.server.ppp[0] packetDropInterfaceDown:count 0
scalar SingleCell.server.ppp[0] packetDropInterfaceDown:sum(packetBytes) 0
scalar SingleCell.server.ppp[0] packetDropNoCarrier:count 0
scalar SingleCell.server.ppp[0] packetDropNoCarrier:sum(packetBytes) 0
scalar SingleCell.server.ipv4.ip packetDropAddressResolutionFailed:count 0
scalar SingleCell.server.ipv4.ip packetDropAddressResolutionFailed:sum(packetBytes) 0
scalar SingleCell.server.ipv4.ip packetDropHopLimitReached:count 0
scalar SingleCell.server.ipv4.ip packetDropHopLimitReached:sum(packetBytes) 0
scalar SingleCell.server.ipv4.ip packetDropForwardingDisabled:count 0
scalar SingleCell.server.ipv4.ip packetDropForwardingDisabled:sum(packetBytes) 0
scalar SingleCell.server.ipv4.ip packetDropNoInterfaceFound:count 0
scalar SingleCell.server.ipv4.ip packetDropNoInterfaceFound:sum(packetBytes) 0
scalar SingleCell.server.ipv4.ip packetDropNoRouteFound:count 0
scalar SingleCell.server.ipv4.ip packetDropNoRouteFound:sum(packetBytes) 0
scalar SingleCell.server.ipv4.ip packetDropUndefined:count 0
scalar SingleCell.server.ipv4.ip packetDropUndefined:sum(packetBytes) 0
scalar SingleCell.server.ipv4.arp arpResolutionFailed:count 0
scalar SingleCell.server.ipv4.arp arpResolutionCompleted:count 0
scalar SingleCell.server.ipv4.arp arpResolutionInitiated:count 0
scalar SingleCell.server.ipv4.arp arpReplySent:count 0
scalar SingleCell.server.ipv4.arp arpReplySent:sum(packetBytes) 0
scalar SingleCell.server.ipv4.arp arpRequestSent:count 0
scalar SingleCell.server.ipv4.arp arpRequestSent:sum(packetBytes) 0
scalar SingleCell.server.udp packetReceived:count 0
scalar SingleCell.server.udp packetReceived:sum(packetBytes) 0
scalar SingleCell.server.udp packetSent:count 2869
scalar SingleCell.server.udp packetSent:sum(packetBytes) 137712
scalar SingleCell.server.udp passedUpPk:count 0
scalar SingleCell.server.udp droppedPkWrongPort:count 0
scalar SingleCell.server.udp droppedPkBadChecksum:count 0
scalar SingleCell.server.app[0] voipGeneratedThroughput:simu5g_rateavg 1080.9978970715358
scalar SingleCell.server.app[1] voipGeneratedThroughput:simu5g_rateavg 522.91673964854851
scalar SingleCell.server.app[2] voipGeneratedThroughput:simu5g_rateavg 1287.5600745236602
scalar SingleCell.server.app[3] voipGeneratedThroughput:simu5g_rateavg 1599.1046640418469
scalar SingleCell.server.app[4] voipGeneratedThroughput:simu5g_rateavg 1087.5928863215972
scalar SingleCell.router.lo[0].lo rcvdPkFromHl:count 0
scalar SingleCell.router.lo[0].lo rcvdPkFromHl:sum(packetBytes) 0
scalar SingleCell.router.lo[0].lo passedUpPk:count 0
scalar SingleCell.router.lo[0].lo passedUpPk:sum(packetBytes) 0
scalar SingleCell.router.lo[0] packetDropInterfaceDown:count 0
scalar SingleCell.router.lo[0] packetDropInterfaceDown:sum(packetBytes) 0
scalar SingleCell.router.lo[0] packetDropNoCarrier:count 0
scalar SingleCell.router.lo[0] packetDropNoCarrier:sum(packetBytes) 0
scalar SingleCell.router.ppp[0].queue queueLength:last 0
scalar SingleCell.router.ppp[0].queue queueLength:max 0
scalar SingleCell.router.ppp[0].queue queueLength:timeavg 0
scalar SingleCell.router.ppp[0].queue queueBitLength:last 0
scalar SingleCell.router.ppp[0].queue queueBitLength:max 0
scalar SingleCell.router.ppp[0].queue queueBitLength:timeavg 0
scalar SingleCell.router.ppp[0].queue outgoingPackets:count 0
scalar SingleCell.router.ppp[0].queue outgoingPacketLengths:sum 0
scalar SingleCell.router.ppp[0].queue incomingPackets:count 0
scalar SingleCell.router.ppp[0].queue incomingPacketLengths:sum 0
scalar SingleCell.router.ppp[0].queue droppedPacketsQueueOverflow:count 0
scalar SingleCell.router.ppp[0].queue droppedPacketLengthsQueueOverflow:sum 0
scalar SingleCell.router.ppp[0].ppp transmissionState:timeavg 0
scalar SingleCell.router.ppp[0].ppp rxPkOk:count 2869
scalar SingleCell.router.ppp[0].ppp rxPkOk:sum(packetBytes) 215175
scalar SingleCell.router.ppp[0].ppp txPk:count 0
scalar SingleCell.router.ppp[0].ppp txPk:sum(packetBytes) 0
scalar SingleCell.router.ppp[0].ppp rcvdPkFromHl:count 0
scalar SingleCell.router.ppp[0].ppp rcvdPkFromHl:sum(packetBytes) 0
scalar SingleCell.router.ppp[0].ppp passedUpPk:count 2869
scalar SingleCell.router.ppp[0].ppp passedUpPk:sum(packetBytes) 195092
scalar SingleCell.router.ppp[0].ppp packetDropIncorrectlyReceived:count 0
scalar SingleCell.router.ppp[0].ppp packetDropIncorrectlyReceived:sum(packetBytes) 0
scalar SingleCell.router.ppp[0].ppp packetDropInterfaceDown:count 0
scalar SingleCell.router.ppp[0].ppp packetDropInterfaceDown:sum(packetBytes) 0
scalar SingleCell.router.ppp[0] packetDropInterfaceDown:count 0
scalar SingleCell.router.ppp[0] packetDropInterfaceDown:sum(packetBytes) 0
scalar SingleCell.router.ppp[0] packetDropNoCarrier:count 0
scalar SingleCell.router.ppp[0] packetDropNoCarrier:sum(packetBytes) 0
scalar SingleCell.router.ppp[1].queue queueLength:last 0
scalar SingleCell.router.ppp[1].queue queueLength:max 0
scalar SingleCell.router.ppp[1].queue queueLength:timeavg 0
scalar SingleCell.router.ppp[1].queue queueBitLength:last 0
scalar SingleCell.router.ppp[1].queue queueBitLength:max 0
scalar SingleCell.router.ppp[1].queue queueBitLength:timeavg 0
scalar SingleCell.router.ppp[1].queue outgoingPackets:count 2869
scalar SingleCell.router.ppp[1].queue outgoingPacketLengths:sum 1560736
scalar SingleCell.router.ppp[1].queue incomingPackets:count 2869
scalar SingleCell.router.ppp[1].queue incomingPacketLengths:sum 1560736
scalar SingleCell.router.ppp[1].queue droppedPacketsQueueOverflow:count 0
scalar SingleCell.router.ppp[1].queue droppedPacketLengthsQueueOverflow:sum 0
scalar SingleCell.router.ppp[1].ppp transmissionState:timeavg 8.6069999999996941e-06
scalar SingleCell.router.ppp[1].ppp rxPkOk:count 0
scalar SingleCell.router.ppp[1].ppp rxPkOk:sum(packetBytes) 0
scalar SingleCell.router.ppp[1].ppp txPk:count 2869
scalar SingleCell.router.ppp[1].ppp txPk:sum(packetBytes) 215175
scalar SingleCell.router.ppp[1].ppp rcvdPkFromHl:count 2869
scalar SingleCell.router.ppp[1].ppp rcvdPkFromHl:sum(packetBytes) 195092
scalar SingleCell.router.ppp[1].ppp passedUpPk:count 0
scalar SingleCell.router.ppp[1].ppp passedUpPk:sum(packetBytes) 0
scalar SingleCell.router.ppp[1].ppp packetDropIncorrectlyReceived:count 0
scalar SingleCell.router.ppp[1].ppp packetDropIncorrectlyReceived:sum(packetBytes) 0
scalar SingleCell.router.ppp[1].ppp packetDropInterfaceDown:count 0
scalar SingleCell.router.ppp[1].ppp packetDropInterfaceDown:sum(packetBytes) 0
scalar SingleCell.router.ppp[1] packetDropInterfaceDown:count 0
scalar SingleCell.router.ppp[1] packetDropInterfaceDown:sum(packetBytes) 0
scalar SingleCell.router.ppp[1] packetDropNoCarrier:count 0
scalar SingleCell.router.ppp[1] packetDropNoCarrier:sum(packetBytes) 0
scalar SingleCell.router.ipv4.ip packetDropAddressResolutionFailed:count 0
scalar SingleCell.router.ipv4.ip packetDropAddressResolutionFailed:sum(packetBytes) 0
scalar SingleCell.router.ipv4.ip packetDropHopLimitReached:count 0
scalar SingleCell.router.ipv4.ip packetDropHopLimitReached:sum(packetBytes) 0
scalar SingleCell.router.ipv4.ip packetDropForwardingDisabled:count 0
scalar SingleCell.router.ipv4.ip packetDropForwardingDisabled:sum(packetBytes) 0
scalar SingleCell.router.ipv4.ip packetDropNoInterfaceFound:count 0
scalar SingleCell.router.ipv4.ip packetDropNoInterfaceFound:sum(packetBytes) 0
scalar SingleCell.router.ipv4.ip packetDropNoRouteFound:count 0
scalar SingleCell.router.ipv4.ip packetDropNoRouteFound:sum(packetBytes) 0
scalar SingleCell.router.ipv4.ip packetDropUndefined:count 0
scalar SingleCell.router.ipv4.ip packetDropUndefined:sum(packetBytes) 0
scalar SingleCell.router.ipv4.arp arpResolutionFailed:count 0
scalar SingleCell.router.ipv4.arp arpResolutionCompleted:count 0
scalar SingleCell.router.ipv4.arp arpResolutionInitiated:count 0
scalar SingleCell.router.ipv4.arp arpReplySent:count 0
scalar SingleCell.router.ipv4.arp arpReplySent:sum(packetBytes) 0
scalar SingleCell.router.ipv4.arp arpRequestSent:count 0
scalar SingleCell.router.ipv4.arp arpRequestSent:sum(packetBytes) 0
scalar SingleCell.pgw.lo[0].lo rcvdPkFromHl:count 0
scalar SingleCell.pgw.lo[0].lo rcvdPkFromHl:sum(packetBytes) 0
scalar SingleCell.pgw.lo[0].lo passedUpPk:count 0
scalar SingleCell.pgw.lo[0].lo passedUpPk:sum(packetBytes) 0
scalar SingleCell.pgw.lo[0] packetDropInterfaceDown:count 0
scalar SingleCell.pgw.lo[0] packetDropInterfaceDown:sum(packetBytes) 0
scalar SingleCell.pgw.lo[0] packetDropNoCarrier:count 0
scalar SingleCell.pgw.lo[0] packetDropNoCarrier:sum(packetBytes) 0
scalar SingleCell.pgw.ppp[0].queue queueLength:last 0
scalar SingleCell.pgw.ppp[0].queue queueLength:max 0
scalar SingleCell.pgw.ppp[0].queue queueLength:timeavg 0
scalar SingleCell.pgw.ppp[0].queue queueBitLength:last 0
scalar SingleCell.pgw.ppp[0].queue queueBitLength:max 0
scalar SingleCell.pgw.ppp[0].queue queueBitLength:timeavg 0
scalar SingleCell.pgw.ppp[0].queue outgoingPackets:count 2869
scalar SingleCell.pgw.ppp[0].queue outgoingPacketLengths:sum 2387008
scalar SingleCell.pgw.ppp[0].queue incomingPackets:count 2869
scalar SingleCell.pgw.ppp[0].queue incomingPacketLengths:sum 2387008
scalar SingleCell.pgw.ppp[0].queue droppedPacketsQueueOverflow:count 0
scalar SingleCell.pgw.ppp[0].queue droppedPacketLengthsQueueOverflow:sum 0
scalar SingleCell.pgw.ppp[0].ppp transmissionState:timeavg 1.2738360000000363e-05
scalar SingleCell.pgw.ppp[0].ppp rxPkOk:count 0
scalar SingleCell.pgw.ppp[0].ppp rxPkOk:sum(packetBytes) 0
scalar SingleCell.pgw.ppp[0].ppp txPk:count 2869
scalar SingleCell.pgw.ppp[0].ppp txPk:sum(packetBytes) 318459
scalar SingleCell.pgw.ppp[0].ppp rcvdPkFromHl:count 2869
scalar SingleCell.pgw.ppp[0].ppp rcvdPkFromHl:sum(packetBytes) 298376
scalar SingleCell.pgw.ppp[0].ppp passedUpPk:count 0
scalar SingleCell.pgw.ppp[0].ppp passedUpPk:sum(packetBytes) 0
scalar SingleCell.pgw.ppp[0].ppp packetDropIncorrectlyReceived:count 0
scalar SingleCell.pgw.ppp[0].ppp packetDropIncorrectlyReceived:sum(packetBytes) 0
scalar SingleCell.pgw.ppp[0].ppp packetDropInterfaceDown:count 0
scalar SingleCell.pgw.ppp[0].ppp packetDropInterfaceDown:sum(packetBytes) 0
scalar SingleCell.pgw.ppp[0] packetDropInterfaceDown:count 0
scalar SingleCell.pgw.ppp[0] packetDropInterfaceDown:sum(packetBytes) 0
scalar SingleCell.pgw.ppp[0] packetDropNoCarrier:count 0
scalar SingleCell.pgw.ppp[0] packetDropNoCarrier:sum(packetBytes) 0
scalar SingleCell.pgw.ipv4.ip packetDropAddressResolutionFailed:count 0
scalar SingleCell.pgw.ipv4.ip packetDropAddressResolutionFailed:sum(packetBytes) 0
scalar SingleCell.pgw.ipv4.ip packetDropHopLimitReached:count 0
scalar SingleCell.pgw.ipv4.ip packetDropHopLimitReached:sum(packetBytes) 0
scalar SingleCell.pgw.ipv4.ip packetDropForwardingDisabled:count 0
scalar SingleCell.pgw.ipv4.ip packetDropForwardingDisabled:sum(packetBytes) 0
scalar SingleCell.pgw.ipv4.ip packetDropNoInterfaceFound:count 0
scalar SingleCell.pgw.ipv4.ip packetDropNoInterfaceFound:sum(packetBytes) 0
scalar SingleCell.pgw.ipv4.ip packetDropNoRouteFound:count 0
scalar SingleCell.pgw.ipv4.ip packetDropNoRouteFound:sum(packetBytes) 0
scalar SingleCell.pgw.ipv4.ip packetDropUndefined:count 0
scalar SingleCell.pgw.ipv4.ip packetDropUndefined:sum(packetBytes) 0
scalar SingleCell.pgw.ipv4.arp arpResolutionFailed:count 0
scalar SingleCell.pgw.ipv4.arp arpResolutionCompleted:count 0
scalar SingleCell.pgw.ipv4.arp arpResolutionInitiated:count 0
scalar SingleCell.pgw.ipv4.arp arpReplySent:count 0
scalar SingleCell.pgw.ipv4.arp arpReplySent:sum(packetBytes) 0
scalar SingleCell.pgw.ipv4.arp arpRequestSent:count 0
scalar SingleCell.pgw.ipv4.arp arpRequestSent:sum(packetBytes) 0
scalar SingleCell.pgw.pppIf.queue queueLength:last 0
scalar SingleCell.pgw.pppIf.queue queueLength:max 0
scalar SingleCell.pgw.pppIf.queue queueLength:timeavg 0
scalar SingleCell.pgw.pppIf.queue queueBitLength:last 0
scalar SingleCell.pgw.pppIf.queue queueBitLength:max 0
scalar SingleCell.pgw.pppIf.queue queueBitLength:timeavg 0
scalar SingleCell.pgw.pppIf.queue outgoingPackets:count 0
scalar SingleCell.pgw.pppIf.queue outgoingPacketLengths:sum 0
scalar SingleCell.pgw.pppIf.queue incomingPackets:count 0
scalar SingleCell.pgw.pppIf.queue incomingPacketLengths:sum 0
scalar SingleCell.pgw.pppIf.queue droppedPacketsQueueOverflow:count 0
scalar SingleCell.pgw.pppIf.queue droppedPacketLengthsQueueOverflow:sum 0
scalar SingleCell.pgw.pppIf.ppp transmissionState:timeavg 0
scalar SingleCell.pgw.pppIf.ppp rxPkOk:count 2869
scalar SingleCell.pgw.pppIf.ppp rxPkOk:sum(packetBytes) 215175
scalar SingleCell.pgw.pppIf.ppp txPk:count 0
scalar SingleCell.pgw.pppIf.ppp txPk:sum(packetBytes) 0
scalar SingleCell.pgw.pppIf.ppp rcvdPkFromHl:count 0
scalar SingleCell.pgw.pppIf.ppp rcvdPkFromHl:sum(packetBytes) 0
scalar SingleCell.pgw.pppIf.ppp passedUpPk:count 2869
scalar SingleCell.pgw.pppIf.ppp passedUpPk:sum(packetBytes) 195092
scalar SingleCell.pgw.pppIf.ppp packetDropIncorrectlyReceived:count 0
scalar SingleCell.pgw.pppIf.ppp packetDropIncorrectlyReceived:sum(packetBytes) 0
scalar SingleCell.pgw.pppIf.ppp packetDropInterfaceDown:count 0
scalar SingleCell.pgw.pppIf.ppp packetDropInterfaceDown:sum(packetBytes) 0
scalar SingleCell.pgw.pppIf packetDropInterfaceDown:count 0
scalar SingleCell.pgw.pppIf packetDropInterfaceDown:sum(packetBytes) 0
scalar SingleCell.pgw.pppIf packetDropNoCarrier:count 0
scalar SingleCell.pgw.pppIf packetDropNoCarrier:sum(packetBytes) 0
scalar SingleCell.pgw.udp packetReceived:count 0
scalar SingleCell.pgw.udp packetReceived:sum(packetBytes) 0
scalar SingleCell.pgw.udp packetSent:count 2869
scalar SingleCell.pgw.udp packetSent:sum(packetBytes) 240996
scalar SingleCell.pgw.udp passedUpPk:count 0
scalar SingleCell.pgw.udp droppedPkWrongPort:count 0
scalar SingleCell.pgw.udp droppedPkBadChecksum:count 0
scalar SingleCell.eNB.cellularNic.pdcp sentPacketToLowerLayer:count 2869
scalar SingleCell.eNB.cellularNic.pdcp sentPacketToLowerLayer:sum(packetBytes) 197961
scalar SingleCell.eNB.cellularNic.pdcp sentPacketToUpperLayer:count 0
scalar SingleCell.eNB.cellularNic.pdcp sentPacketToUpperLayer:sum(packetBytes) 0
scalar SingleCell.eNB.cellularNic.pdcp receivedPacketFromLowerLayer:count 0
scalar SingleCell.eNB.cellularNic.pdcp receivedPacketFromLowerLayer:sum(packetBytes) 0
scalar SingleCell.eNB.cellularNic.pdcp receivedPacketFromUpperLayer:count 2869
scalar SingleCell.eNB.cellularNic.pdcp receivedPacketFromUpperLayer:sum(packetBytes) 195092
scalar SingleCell.eNB.cellularNic.rlc.tm rlcPacketLossUl:mean -nan
scalar SingleCell.eNB.cellularNic.rlc.tm rlcPacketLossUl:sum 0
scalar SingleCell.eNB.cellularNic.rlc.tm rlcPacketLossDl:mean -nan
scalar SingleCell.eNB.cellularNic.rlc.tm rlcPacketLossDl:sum 0
scalar SingleCell.eNB.cellularNic.rlc.tm sentPacketToLowerLayer:count 0
scalar SingleCell.eNB.cellularNic.rlc.tm sentPacketToLowerLayer:sum(packetBytes) 0
scalar SingleCell.eNB.cellularNic.rlc.tm sentPacketToUpperLayer:count 0
scalar SingleCell.eNB.cellularNic.rlc.tm sentPacketToUpperLayer:sum(packetBytes) 0
scalar SingleCell.eNB.cellularNic.rlc.tm receivedPacketFromLowerLayer:count 0
scalar SingleCell.eNB.cellularNic.rlc.tm receivedPacketFromLowerLayer:sum(packetBytes) 0
scalar SingleCell.eNB.cellularNic.rlc.tm receivedPacketFromUpperLayer:count 0
scalar SingleCell.eNB.cellularNic.rlc.tm receivedPacketFromUpperLayer:sum(packetBytes) 0
scalar SingleCell.eNB.cellularNic.rlc.um rlcCellThroughputUl:simu5g_rateavg -nan
scalar SingleCell.eNB.cellularNic.rlc.um rlcCellThroughputDl:simu5g_rateavg 10045.253318936993
scalar SingleCell.eNB.cellularNic.rlc.um rlcPduThroughputUl:simu5g_rateavg -nan
scalar SingleCell.eNB.cellularNic.rlc.um rlcPduThroughputDl:simu5g_rateavg -nan
scalar SingleCell.eNB.cellularNic.rlc.um rlcPduDelayUl:mean -nan
scalar SingleCell.eNB.cellularNic.rlc.um rlcPduDelayDl:mean -nan
scalar SingleCell.eNB.cellularNic.rlc.um rlcThroughputUl:simu5g_rateavg -nan
scalar SingleCell.eNB.cellularNic.rlc.um rlcThroughputDl:simu5g_rateavg -nan
scalar SingleCell.eNB.cellularNic.rlc.um rlcDelayUl:mean -nan
scalar SingleCell.eNB.cellularNic.rlc.um rlcDelayDl:mean -nan
scalar SingleCell.eNB.cellularNic.rlc.um sentPacketToLowerLayer:count 2869
scalar SingleCell.eNB.cellularNic.rlc.um sentPacketToLowerLayer:sum(packetBytes) 203699
scalar SingleCell.eNB.cellularNic.rlc.um sentPacketToUpperLayer:count 0
scalar SingleCell.eNB.cellularNic.rlc.um sentPacketToUpperLayer:sum(packetBytes) 0
scalar SingleCell.eNB.cellularNic.rlc.um receivedPacketFromLowerLayer:count 0
scalar SingleCell.eNB.cellularNic.rlc.um receivedPacketFromLowerLayer:sum(packetBytes) 0
scalar SingleCell.eNB.cellularNic.rlc.um receivedPacketFromUpperLayer:count 2869
scalar SingleCell.eNB.cellularNic.rlc.um receivedPacketFromUpperLayer:sum(packetBytes) 197961
scalar SingleCell.eNB.cellularNic.rlc.am rlcPacketLossTotal:mean -nan
scalar SingleCell.eNB.cellularNic.rlc.am rlcCellThroughputUl:simu5g_rateavg -nan
scalar SingleCell.eNB.cellularNic.rlc.am rlcCellThroughputDl:simu5g_rateavg -nan
scalar SingleCell.eNB.cellularNic.rlc.am rlcPduThroughputUl:simu5g_rateavg -nan
scalar SingleCell.eNB.cellularNic.rlc.am rlcPduThroughputDl:simu5g_rateavg -nan
scalar SingleCell.eNB.cellularNic.rlc.am rlcPduDelayUl:mean -nan
scalar SingleCell.eNB.cellularNic.rlc.am rlcPduDelayDl:mean -nan
scalar SingleCell.eNB.cellularNic.rlc.am rlcThroughputUl:simu5g_rateavg -nan
scalar SingleCell.eNB.cellularNic.rlc.am rlcThroughputDl:simu5g_rateavg -nan
scalar SingleCell.eNB.cellularNic.rlc.am rlcDelayUl:mean -nan
scalar SingleCell.eNB.cellularNic.rlc.am rlcDelayDl:mean -nan
scalar SingleCell.eNB.cellularNic.rlc.am rlcPduPacketLossUl:mean -nan
scalar SingleCell.eNB.cellularNic.rlc.am rlcPduPacketLossDl:mean -nan
scalar SingleCell.eNB.cellularNic.rlc.am rlcPacketLossUl:mean -nan
scalar SingleCell.eNB.cellularNic.rlc.am rlcPacketLossDl:mean -nan
scalar SingleCell.eNB.cellularNic.rlc.am rlcCellPacketLossUl:mean -nan
scalar SingleCell.eNB.cellularNic.rlc.am rlcCellPacketLossDl:mean -nan
scalar SingleCell.eNB.cellularNic.mac avgServedBlocksUl:mean 0
scalar SingleCell.eNB.cellularNic.mac avgServedBlocksDl:mean 0.15659999999999999
scalar SingleCell.eNB.cellularNic.mac harqTxAttemptsUl:mean -nan
scalar SingleCell.eNB.cellularNic.mac harqTxAttemptsDl:mean -nan
scalar SingleCell.eNB.cellularNic.mac harqErrorRate_4th_Ul:mean -nan
scalar SingleCell.eNB.cellularNic.mac harqErrorRate_4th_Dl:mean -nan
scalar SingleCell.eNB.cellularNic.mac harqErrorRate_3rd_Ul:mean -nan
scalar SingleCell.eNB.cellularNic.mac harqErrorRate_3rd_Dl:mean -nan
scalar SingleCell.eNB.cellularNic.mac harqErrorRate_2nd_Ul:mean -nan
scalar SingleCell.eNB.cellularNic.mac harqErrorRate_2nd_Dl:mean -nan
scalar SingleCell.eNB.cellularNic.mac harqErrorRate_1st_Ul:mean -nan
scalar SingleCell.eNB.cellularNic.mac harqErrorRate_1st_Dl:mean -nan
scalar SingleCell.eNB.cellularNic.mac harqErrorRateUl:mean -nan
scalar SingleCell.eNB.cellularNic.mac harqErrorRateDl:mean -nan
scalar SingleCell.eNB.cellularNic.mac macCellPacketLossUl:mean -nan
scalar SingleCell.eNB.cellularNic.mac macCellPacketLossDl:mean 0
scalar SingleCell.eNB.cellularNic.mac macPacketLossUl:mean -nan
scalar SingleCell.eNB.cellularNic.mac macPacketLossDl:mean -nan
scalar SingleCell.eNB.cellularNic.mac macThroughputUl:simu5g_rateavg -nan
scalar SingleCell.eNB.cellularNic.mac macThroughputDl:simu5g_rateavg -nan
scalar SingleCell.eNB.cellularNic.mac macDelayUl:mean -nan
scalar SingleCell.eNB.cellularNic.mac macDelayDl:mean -nan
scalar SingleCell.eNB.cellularNic.mac macCellThroughputUl:simu5g_rateavg -nan
scalar SingleCell.eNB.cellularNic.mac macCellThroughputDl:simu5g_rateavg 10627.586844672469
scalar SingleCell.eNB.cellularNic.mac sentPacketToLowerLayer:count 2938
scalar SingleCell.eNB.cellularNic.mac sentPacketToLowerLayer:sum(packetBytes) 214474
scalar SingleCell.eNB.cellularNic.mac sentPacketToUpperLayer:count 2869
scalar SingleCell.eNB.cellularNic.mac sentPacketToUpperLayer:sum(packetBytes) 2869
scalar SingleCell.eNB.cellularNic.mac receivedPacketFromLowerLayer:count 19608
scalar SingleCell.eNB.cellularNic.mac receivedPacketFromLowerLayer:sum(packetBytes) 19608
scalar SingleCell.eNB.cellularNic.mac receivedPacketFromUpperLayer:count 5738
scalar SingleCell.eNB.cellularNic.mac receivedPacketFromUpperLayer:sum(packetBytes) 401660
scalar SingleCell.eNB.cellularNic.mac macBufferOverFlowD2D:mean -nan
scalar SingleCell.eNB.cellularNic.mac macBufferOverFlowUl:mean -nan
scalar SingleCell.eNB.cellularNic.mac macBufferOverFlowDl:mean -nan
scalar SingleCell.eNB.cellularNic.channelModel[0] measuredSinrUl:mean -nan
scalar SingleCell.eNB.cellularNic.channelModel[0] measuredSinrDl:mean -nan
scalar SingleCell.eNB.cellularNic.channelModel[0] rcvdSinrD2D:mean -nan
scalar SingleCell.eNB.cellularNic.channelModel[0] rcvdSinrUl:mean -nan
scalar SingleCell.eNB.cellularNic.channelModel[0] rcvdSinrDl:mean -nan
scalar SingleCell.eNB.cellularNic packetDropInterfaceDown:count 0
scalar SingleCell.eNB.cellularNic packetDropInterfaceDown:sum(packetBytes) 0
scalar SingleCell.eNB.cellularNic packetDropNoCarrier:count 0
scalar SingleCell.eNB.cellularNic packetDropNoCarrier:sum(packetBytes) 0
scalar SingleCell.eNB.pppIf.queue queueLength:last 0
scalar SingleCell.eNB.pppIf.queue queueLength:max 0
scalar SingleCell.eNB.pppIf.queue queueLength:timeavg 0
scalar SingleCell.eNB.pppIf.queue queueBitLength:last 0
scalar SingleCell.eNB.pppIf.queue queueBitLength:max 0
scalar SingleCell.eNB.pppIf.queue queueBitLength:timeavg 0
scalar SingleCell.eNB.pppIf.queue outgoingPackets:count 0
scalar SingleCell.eNB.pppIf.queue outgoingPacketLengths:sum 0
scalar SingleCell.eNB.pppIf.queue incomingPackets:count 0
scalar SingleCell.eNB.pppIf.queue incomingPacketLengths:sum 0
scalar SingleCell.eNB.pppIf.queue droppedPacketsQueueOverflow:count 0
scalar SingleCell.eNB.pppIf.queue droppedPacketLengthsQueueOverflow:sum 0
scalar SingleCell.eNB.pppIf.ppp transmissionState:timeavg 0
scalar SingleCell.eNB.pppIf.ppp rxPkOk:count 2869
scalar SingleCell.eNB.pppIf.ppp rxPkOk:sum(packetBytes) 318459
scalar SingleCell.eNB.pppIf.ppp txPk:count 0
scalar SingleCell.eNB.pppIf.ppp txPk:sum(packetBytes) 0
scalar SingleCell.eNB.pppIf.ppp rcvdPkFromHl:count 0
scalar SingleCell.eNB.pppIf.ppp rcvdPkFromHl:sum(packetBytes) 0
scalar SingleCell.eNB.pppIf.ppp passedUpPk:count 2869
scalar SingleCell.eNB.pppIf.ppp passedUpPk:sum(packetBytes) 298376
scalar SingleCell.eNB.pppIf.ppp packetDropIncorrectlyReceived:count 0
scalar SingleCell.eNB.pppIf.ppp packetDropIncorrectlyReceived:sum(packetBytes) 0
scalar SingleCell.eNB.pppIf.ppp packetDropInterfaceDown:count 0
scalar SingleCell.eNB.pppIf.ppp packetDropInterfaceDown:sum(packetBytes) 0
scalar SingleCell.eNB.pppIf packetDropInterfaceDown:count 0
scalar SingleCell.eNB.pppIf packetDropInterfaceDown:sum(packetBytes) 0
scalar SingleCell.eNB.pppIf packetDropNoCarrier:count 0
scalar SingleCell.eNB.pppIf packetDropNoCarrier:sum(packetBytes) 0
scalar SingleCell.eNB.pppMEHostIf.queue queueLength:last 0
scalar SingleCell.eNB.pppMEHostIf.queue queueLength:max 0
scalar SingleCell.eNB.pppMEHostIf.queue queueLength:timeavg 0
scalar SingleCell.eNB.pppMEHostIf.queue queueBitLength:last 0
scalar SingleCell.eNB.pppMEHostIf.queue queueBitLength:max 0
scalar SingleCell.eNB.pppMEHostIf.queue queueBitLength:timeavg 0
scalar SingleCell.eNB.pppMEHostIf.queue outgoingPackets:count 0
scalar SingleCell.eNB.pppMEHostIf.queue outgoingPacketLengths:sum 0
scalar SingleCell.eNB.pppMEHostIf.queue incomingPackets:count 0
scalar SingleCell.eNB.pppMEHostIf.queue incomingPacketLengths:sum 0
scalar SingleCell.eNB.pppMEHostIf.queue droppedPacketsQueueOverflow:count 0
scalar SingleCell.eNB.pppMEHostIf.queue droppedPacketLengthsQueueOverflow:sum 0
scalar SingleCell.eNB.pppMEHostIf.ppp transmissionState:timeavg 0
scalar SingleCell.eNB.pppMEHostIf.ppp rxPkOk:count 0
scalar SingleCell.eNB.pppMEHostIf.ppp rxPkOk:sum(packetBytes) 0
scalar SingleCell.eNB.pppMEHostIf.ppp txPk:count 0
scalar SingleCell.eNB.pppMEHostIf.ppp txPk:sum(packetBytes) 0
scalar SingleCell.eNB.pppMEHostIf.ppp rcvdPkFromHl:count 0
scalar SingleCell.eNB.pppMEHostIf.ppp rcvdPkFromHl:sum(packetBytes) 0
scalar SingleCell.eNB.pppMEHostIf.ppp passedUpPk:count 0
scalar SingleCell.eNB.pppMEHostIf.ppp passedUpPk:sum(packetBytes) 0
scalar SingleCell.eNB.pppMEHostIf.ppp packetDropIncorrectlyReceived:count 0
scalar SingleCell.eNB.pppMEHostIf.ppp packetDropIncorrectlyReceived:sum(packetBytes) 0
scalar SingleCell.eNB.pppMEHostIf.ppp packetDropInterfaceDown:count 0
scalar SingleCell.eNB.pppMEHostIf.ppp packetDropInterfaceDown:sum(packetBytes) 0
scalar SingleCell.eNB.pppMEHostIf packetDropInterfaceDown:count 0
scalar SingleCell.eNB.pppMEHostIf packetDropInterfaceDown:sum(packetBytes) 0
scalar SingleCell.eNB.pppMEHostIf packetDropNoCarrier:count 0
scalar SingleCell.eNB.pppMEHostIf packetDropNoCarrier:sum(packetBytes) 0
scalar SingleCell.eNB.ipv4.ip packetDropAddressResolutionFailed:count 0
scalar SingleCell.eNB.ipv4.ip packetDropAddressResolutionFailed:sum(packetBytes) 0
scalar SingleCell.eNB.ipv4.ip packetDropHopLimitReached:count 0
scalar SingleCell.eNB.ipv4.ip packetDropHopLimitReached:sum(packetBytes) 0
scalar SingleCell.eNB.ipv4.ip packetDropForwardingDisabled:count 0
scalar SingleCell.eNB.ipv4.ip packetDropForwardingDisabled:sum(packetBytes) 0
scalar SingleCell.eNB.ipv4.ip packetDropNoInterfaceFound:count 0
scalar SingleCell.eNB.ipv4.ip packetDropNoInterfaceFound:sum(packetBytes) 0
scalar SingleCell.eNB.ipv4.ip packetDropNoRouteFound:count 0
scalar SingleCell.eNB.ipv4.ip packetDropNoRouteFound:sum(packetBytes) 0
scalar SingleCell.eNB.ipv4.ip packetDropUndefined:count 0
scalar SingleCell.eNB.ipv4.ip packetDropUndefined:sum(packetBytes) 0
scalar SingleCell.eNB.ipv4.arp arpResolutionFailed:count 0
scalar SingleCell.eNB.ipv4.arp arpResolutionCompleted:count 0
scalar SingleCell.eNB.ipv4.arp arpResolutionInitiated:count 0
scalar SingleCell.eNB.ipv4.arp arpReplySent:count 0
scalar SingleCell.eNB.ipv4.arp arpReplySent:sum(packetBytes) 0
scalar SingleCell.eNB.ipv4.arp arpRequestSent:count 0
scalar SingleCell.eNB.ipv4.arp arpRequestSent:sum(packetBytes) 0
scalar SingleCell.eNB.udp packetReceived:count 2869
scalar SingleCell.eNB.udp packetReceived:sum(packetBytes) 240996
scalar SingleCell.eNB.udp packetSent:count 0
scalar SingleCell.eNB.udp packetSent:sum(packetBytes) 0
scalar SingleCell.eNB.udp passedUpPk:count 2869
scalar SingleCell.eNB.udp droppedPkWrongPort:count 0
scalar SingleCell.eNB.udp droppedPkBadChecksum:count 0
scalar SingleCell.ue[0].lo[0].lo rcvdPkFromHl:count 0
scalar SingleCell.ue[0].lo[0].lo rcvdPkFromHl:sum(packetBytes) 0
scalar SingleCell.ue[0].lo[0].lo passedUpPk:count 0
scalar SingleCell.ue[0].lo[0].lo passedUpPk:sum(packetBytes) 0
scalar SingleCell.ue[0].lo[0] packetDropInterfaceDown:count 0
scalar SingleCell.ue[0].lo[0] packetDropInterfaceDown:sum(packetBytes) 0
scalar SingleCell.ue[0].lo[0] packetDropNoCarrier:count 0
scalar SingleCell.ue[0].lo[0] packetDropNoCarrier:sum(packetBytes) 0
scalar SingleCell.ue[0].cellularNic.pdcp sentPacketToLowerLayer:count 0
scalar SingleCell.ue[0].cellularNic.pdcp sentPacketToLowerLayer:sum(packetBytes) 0
scalar SingleCell.ue[0].cellularNic.pdcp sentPacketToUpperLayer:count 483
scalar SingleCell.ue[0].cellularNic.pdcp sentPacketToUpperLayer:sum(packetBytes) 32844
scalar SingleCell.ue[0].cellularNic.pdcp receivedPacketFromLowerLayer:count 483
scalar SingleCell.ue[0].cellularNic.pdcp receivedPacketFromLowerLayer:sum(packetBytes) 33327
scalar SingleCell.ue[0].cellularNic.pdcp receivedPacketFromUpperLayer:count 0
scalar SingleCell.ue[0].cellularNic.pdcp receivedPacketFromUpperLayer:sum(packetBytes) 0
scalar SingleCell.ue[0].cellularNic.rlc.tm rlcPacketLossUl:mean -nan
scalar SingleCell.ue[0].cellularNic.rlc.tm rlcPacketLossUl:sum 0
scalar SingleCell.ue[0].cellularNic.rlc.tm rlcPacketLossDl:mean -nan
scalar SingleCell.ue[0].cellularNic.rlc.tm rlcPacketLossDl:sum 0
scalar SingleCell.ue[0].cellularNic.rlc.tm sentPacketToLowerLayer:count 0
scalar SingleCell.ue[0].cellularNic.rlc.tm sentPacketToLowerLayer:sum(packetBytes) 0
scalar SingleCell.ue[0].cellularNic.rlc.tm sentPacketToUpperLayer:count 0
scalar SingleCell.ue[0].cellularNic.rlc.tm sentPacketToUpperLayer:sum(packetBytes) 0
scalar SingleCell.ue[0].cellularNic.rlc.tm receivedPacketFromLowerLayer:count 0
scalar SingleCell.ue[0].cellularNic.rlc.tm receivedPacketFromLowerLayer:sum(packetBytes) 0
scalar SingleCell.ue[0].cellularNic.rlc.tm receivedPacketFromUpperLayer:count 0
scalar SingleCell.ue[0].cellularNic.rlc.tm receivedPacketFromUpperLayer:sum(packetBytes) 0
scalar SingleCell.ue[0].cellularNic.rlc.um rlcCellThroughputUl:simu5g_rateavg -nan
scalar SingleCell.ue[0].cellularNic.rlc.um rlcCellThroughputDl:simu5g_rateavg -nan
scalar SingleCell.ue[0].cellularNic.rlc.um rlcPduThroughputUl:simu5g_rateavg -nan
scalar SingleCell.ue[0].cellularNic.rlc.um rlcPduThroughputDl:simu5g_rateavg 0
scalar SingleCell.ue[0].cellularNic.rlc.um rlcPduDelayUl:mean -nan
scalar SingleCell.ue[0].cellularNic.rlc.um rlcPduDelayDl:mean 0.0043105590062111829
scalar SingleCell.ue[0].cellularNic.rlc.um rlcThroughputUl:simu5g_rateavg -nan
scalar SingleCell.ue[0].cellularNic.rlc.um rlcThroughputDl:simu5g_rateavg 1858.9506026791282
scalar SingleCell.ue[0].cellularNic.rlc.um rlcDelayUl:mean -nan
scalar SingleCell.ue[0].cellularNic.rlc.um rlcDelayDl:mean 0.0050875872562091288
scalar SingleCell.ue[0].cellularNic.rlc.um sentPacketToLowerLayer:count 0
scalar SingleCell.ue[0].cellularNic.rlc.um sentPacketToLowerLayer:sum(packetBytes) 0
scalar SingleCell.ue[0].cellularNic.rlc.um sentPacketToUpperLayer:count 483
scalar SingleCell.ue[0].cellularNic.rlc.um sentPacketToUpperLayer:sum(packetBytes) 33327
scalar SingleCell.ue[0].cellularNic.rlc.um receivedPacketFromLowerLayer:count 483
scalar SingleCell.ue[0].cellularNic.rlc.um receivedPacketFromLowerLayer:sum(packetBytes) 34293
scalar SingleCell.ue[0].cellularNic.rlc.um receivedPacketFromUpperLayer:count 0
scalar SingleCell.ue[0].cellularNic.rlc.um receivedPacketFromUpperLayer:sum(packetBytes) 0
scalar SingleCell.ue[0].cellularNic.rlc.am rlcPacketLossTotal:mean -nan
scalar SingleCell.ue[0].cellularNic.rlc.am rlcCellThroughputUl:simu5g_rateavg -nan
scalar SingleCell.ue[0].cellularNic.rlc.am rlcCellThroughputDl:simu5g_rateavg -nan
scalar SingleCell.ue[0].cellularNic.rlc.am rlcPduThroughputUl:simu5g_rateavg -nan
scalar SingleCell.ue[0].cellularNic.rlc.am rlcPduThroughputDl:simu5g_rateavg -nan
scalar SingleCell.ue[0].cellularNic.rlc.am rlcPduDelayUl:mean -nan
scalar SingleCell.ue[0].cellularNic.rlc.am rlcPduDelayDl:mean -nan
scalar SingleCell.ue[0].cellularNic.rlc.am rlcThroughputUl:simu5g_rateavg -nan
scalar SingleCell.ue[0].cellularNic.rlc.am rlcThroughputDl:simu5g_rateavg -nan
scalar SingleCell.ue[0].cellularNic.rlc.am rlcDelayUl:mean -nan
scalar SingleCell.ue[0].cellularNic.rlc.am rlcDelayDl:mean -nan
scalar SingleCell.ue[0].cellularNic.rlc.am rlcPduPacketLossUl:mean -nan
scalar SingleCell.ue[0].cellularNic.rlc.am rlcPduPacketLossDl:mean -nan
scalar SingleCell.ue[0].cellularNic.rlc.am rlcPacketLossUl:mean -nan
scalar SingleCell.ue[0].cellularNic.rlc.am rlcPacketLossDl:mean -nan
scalar SingleCell.ue[0].cellularNic.rlc.am rlcCellPacketLossUl:mean -nan
scalar SingleCell.ue[0].cellularNic.rlc.am rlcCellPacketLossDl:mean -nan
scalar SingleCell.ue[0].cellularNic.mac harqTxAttemptsUl:mean -nan
scalar SingleCell.ue[0].cellularNic.mac harqTxAttemptsDl:mean 1.0517598343685299
scalar SingleCell.ue[0].cellularNic.mac harqErrorRate_4th_Ul:mean -nan
scalar SingleCell.ue[0].cellularNic.mac harqErrorRate_4th_Dl:mean -nan
scalar SingleCell.ue[0].cellularNic.mac harqErrorRate_3rd_Ul:mean -nan
scalar SingleCell.ue[0].cellularNic.mac harqErrorRate_3rd_Dl:mean 0
scalar SingleCell.ue[0].cellularNic.mac harqErrorRate_2nd_Ul:mean -nan
scalar SingleCell.ue[0].cellularNic.mac harqErrorRate_2nd_Dl:mean 0.041666666666666664
scalar SingleCell.ue[0].cellularNic.mac harqErrorRate_1st_Ul:mean -nan
scalar SingleCell.ue[0].cellularNic.mac harqErrorRate_1st_Dl:mean 0.049689440993788817
scalar SingleCell.ue[0].cellularNic.mac harqErrorRateUl:mean -nan
scalar SingleCell.ue[0].cellularNic.mac harqErrorRateDl:mean 0.049212598425196853
scalar SingleCell.ue[0].cellularNic.mac macCellPacketLossUl:mean -nan
scalar SingleCell.ue[0].cellularNic.mac macCellPacketLossDl:mean -nan
scalar SingleCell.ue[0].cellularNic.mac macPacketLossUl:mean -nan
scalar SingleCell.ue[0].cellularNic.mac macPacketLossDl:mean 0
scalar SingleCell.ue[0].cellularNic.mac macThroughputUl:simu5g_rateavg -nan
scalar SingleCell.ue[0].cellularNic.mac macThroughputDl:simu5g_rateavg 1966.7158550083527
scalar SingleCell.ue[0].cellularNic.mac macDelayUl:mean -nan
scalar SingleCell.ue[0].cellularNic.mac macDelayDl:mean 0.0043105590062111829
scalar SingleCell.ue[0].cellularNic.mac macCellThroughputUl:simu5g_rateavg -nan
scalar SingleCell.ue[0].cellularNic.mac macCellThroughputDl:simu5g_rateavg -nan
scalar SingleCell.ue[0].cellularNic.mac sentPacketToLowerLayer:count 508
scalar SingleCell.ue[0].cellularNic.mac sentPacketToLowerLayer:sum(packetBytes) 508
scalar SingleCell.ue[0].cellularNic.mac sentPacketToUpperLayer:count 483
scalar SingleCell.ue[0].cellularNic.mac sentPacketToUpperLayer:sum(packetBytes) 34293
scalar SingleCell.ue[0].cellularNic.mac receivedPacketFromLowerLayer:count 508
scalar SingleCell.ue[0].cellularNic.mac receivedPacketFromLowerLayer:sum(packetBytes) 37084
scalar SingleCell.ue[0].cellularNic.mac receivedPacketFromUpperLayer:count 0
scalar SingleCell.ue[0].cellularNic.mac receivedPacketFromUpperLayer:sum(packetBytes) 0
scalar SingleCell.ue[0].cellularNic.mac macBufferOverFlowD2D:mean -nan
scalar SingleCell.ue[0].cellularNic.mac macBufferOverFlowUl:mean -nan
scalar SingleCell.ue[0].cellularNic.mac macBufferOverFlowDl:mean -nan
scalar SingleCell.ue[0].cellularNic.phy distance:mean 381.67028126048177
scalar SingleCell.ue[0].cellularNic.phy averageCqiUl:mean -nan
scalar SingleCell.ue[0].cellularNic.phy averageCqiUl:count 0
scalar SingleCell.ue[0].cellularNic.phy averageCqiDl:mean 13.649606299212598
scalar SingleCell.ue[0].cellularNic.phy averageCqiDl:count 508
scalar SingleCell.ue[0].cellularNic.channelModel[0] measuredSinrUl:mean 25.101849033677855
scalar SingleCell.ue[0].cellularNic.channelModel[0] measuredSinrDl:mean 30.831276861168043
scalar SingleCell.ue[0].cellularNic.channelModel[0] rcvdSinrD2D:mean -nan
scalar SingleCell.ue[0].cellularNic.channelModel[0] rcvdSinrUl:mean -nan
scalar SingleCell.ue[0].cellularNic.channelModel[0] rcvdSinrDl:mean 29.511930810890473
scalar SingleCell.ue[0].cellularNic packetDropInterfaceDown:count 0
scalar SingleCell.ue[0].cellularNic packetDropInterfaceDown:sum(packetBytes) 0
scalar SingleCell.ue[0].cellularNic packetDropNoCarrier:count 0
scalar SingleCell.ue[0].cellularNic packetDropNoCarrier:sum(packetBytes) 0
scalar SingleCell.ue[0].encap pauseSent:count 0
scalar SingleCell.ue[0].encap pauseSent:sum 0
scalar SingleCell.ue[0].encap decapPk:count 0
scalar SingleCell.ue[0].encap decapPk:sum(packetBytes) 0
scalar SingleCell.ue[0].encap encapPk:count 0
scalar SingleCell.ue[0].encap encapPk:sum(packetBytes) 0
scalar SingleCell.ue[0].ipv4.ip packetDropAddressResolutionFailed:count 0
scalar SingleCell.ue[0].ipv4.ip packetDropAddressResolutionFailed:sum(packetBytes) 0
scalar SingleCell.ue[0].ipv4.ip packetDropHopLimitReached:count 0
scalar SingleCell.ue[0].ipv4.ip packetDropHopLimitReached:sum(packetBytes) 0
scalar SingleCell.ue[0].ipv4.ip packetDropForwardingDisabled:count 0
scalar SingleCell.ue[0].ipv4.ip packetDropForwardingDisabled:sum(packetBytes) 0
scalar SingleCell.ue[0].ipv4.ip packetDropNoInterfaceFound:count 0
scalar SingleCell.ue[0].ipv4.ip packetDropNoInterfaceFound:sum(packetBytes) 0
scalar SingleCell.ue[0].ipv4.ip packetDropNoRouteFound:count 0
scalar SingleCell.ue[0].ipv4.ip packetDropNoRouteFound:sum(packetBytes) 0
scalar SingleCell.ue[0].ipv4.ip packetDropUndefined:count 0
scalar SingleCell.ue[0].ipv4.ip packetDropUndefined:sum(packetBytes) 0
scalar SingleCell.ue[0].ipv4.arp arpResolutionFailed:count 0
scalar SingleCell.ue[0].ipv4.arp arpResolutionCompleted:count 0
scalar SingleCell.ue[0].ipv4.arp arpResolutionInitiated:count 0
scalar SingleCell.ue[0].ipv4.arp arpReplySent:count 0
scalar SingleCell.ue[0].ipv4.arp arpReplySent:sum(packetBytes) 0
scalar SingleCell.ue[0].ipv4.arp arpRequestSent:count 0
scalar SingleCell.ue[0].ipv4.arp arpRequestSent:sum(packetBytes) 0
scalar SingleCell.ue[0].udp packetReceived:count 483
scalar SingleCell.ue[0].udp packetReceived:sum(packetBytes) 23184
scalar SingleCell.ue[0].udp packetSent:count 0
scalar SingleCell.ue[0].udp packetSent:sum(packetBytes) 0
scalar SingleCell.ue[0].udp passedUpPk:count 483
scalar SingleCell.ue[0].udp droppedPkWrongPort:count 0
scalar SingleCell.ue[0].udp droppedPkBadChecksum:count 0
scalar SingleCell.ue[0].app[0] voipReceivedThroughput:simu5g_rateavg 1077.6525232922477
scalar SingleCell.ue[0].app[0] voipPlayoutLoss:mean 0.034845196759259262
scalar SingleCell.ue[0].app[0] voipJitter:mean 0.0059999999999999993
scalar SingleCell.ue[0].app[0] voipTaildropLoss:mean 0
scalar SingleCell.ue[0].app[0] voipMos:mean 3.7580880721491581
scalar SingleCell.ue[0].app[0] voipFrameDelay:mean 0.0050879460562090889
scalar SingleCell.ue[0].app[0] voipFrameLoss:mean 0
scalar SingleCell.ue[0].app[0] voipPlayoutDelay:mean 0.0030000000000000001
scalar SingleCell.ue[1].lo[0].lo rcvdPkFromHl:count 0
scalar SingleCell.ue[1].lo[0].lo rcvdPkFromHl:sum(packetBytes) 0
scalar SingleCell.ue[1].lo[0].lo passedUpPk:count 0
scalar SingleCell.ue[1].lo[0].lo passedUpPk:sum(packetBytes) 0
scalar SingleCell.ue[1].lo[0] packetDropInterfaceDown:count 0
scalar SingleCell.ue[1].lo[0] packetDropInterfaceDown:sum(packetBytes) 0
scalar SingleCell.ue[1].lo[0] packetDropNoCarrier:count 0
scalar SingleCell.ue[1].lo[0] packetDropNoCarrier:sum(packetBytes) 0
scalar SingleCell.ue[1].cellularNic.pdcp sentPacketToLowerLayer:count 0
scalar SingleCell.ue[1].cellularNic.pdcp sentPacketToLowerLayer:sum(packetBytes) 0
scalar SingleCell.ue[1].cellularNic.pdcp sentPacketToUpperLayer:count 440
scalar SingleCell.ue[1].cellularNic.pdcp sentPacketToUpperLayer:sum(packetBytes) 29920
scalar SingleCell.ue[1].cellularNic.pdcp receivedPacketFromLowerLayer:count 440
scalar SingleCell.ue[1].cellularNic.pdcp receivedPacketFromLowerLayer:sum(packetBytes) 30360
scalar SingleCell.ue[1].cellularNic.pdcp receivedPacketFromUpperLayer:count 0
scalar SingleCell.ue[1].cellularNic.pdcp receivedPacketFromUpperLayer:sum(packetBytes) 0
scalar SingleCell.ue[1].cellularNic.rlc.tm rlcPacketLossUl:mean -nan
scalar SingleCell.ue[1].cellularNic.rlc.tm rlcPacketLossUl:sum 0
scalar SingleCell.ue[1].cellularNic.rlc.tm rlcPacketLossDl:mean -nan
scalar SingleCell.ue[1].cellularNic.rlc.tm rlcPacketLossDl:sum 0
scalar SingleCell.ue[1].cellularNic.rlc.tm sentPacketToLowerLayer:count 0
scalar SingleCell.ue[1].cellularNic.rlc.tm sentPacketToLowerLayer:sum(packetBytes) 0
scalar SingleCell.ue[1].cellularNic.rlc.tm sentPacketToUpperLayer:count 0
scalar SingleCell.ue[1].cellularNic.rlc.tm sentPacketToUpperLayer:sum(packetBytes) 0
scalar SingleCell.ue[1].cellularNic.rlc.tm receivedPacketFromLowerLayer:count 0
scalar SingleCell.ue[1].cellularNic.rlc.tm receivedPacketFromLowerLayer:sum(packetBytes) 0
scalar SingleCell.ue[1].cellularNic.rlc.tm receivedPacketFromUpperLayer:count 0
scalar SingleCell.ue[1].cellularNic.rlc.tm receivedPacketFromUpperLayer:sum(packetBytes) 0
scalar SingleCell.ue[1].cellularNic.rlc.um rlcCellThroughputUl:simu5g_rateavg -nan
scalar SingleCell.ue[1].cellularNic.rlc.um rlcCellThroughputDl:simu5g_rateavg -nan
scalar SingleCell.ue[1].cellularNic.rlc.um rlcPduThroughputUl:simu5g_rateavg -nan
scalar SingleCell.ue[1].cellularNic.rlc.um rlcPduThroughputDl:simu5g_rateavg 0
scalar SingleCell.ue[1].cellularNic.rlc.um rlcPduDelayUl:mean -nan
scalar SingleCell.ue[1].cellularNic.rlc.um rlcPduDelayDl:mean 0.0042863636363636394
scalar SingleCell.ue[1].cellularNic.rlc.um rlcThroughputUl:simu5g_rateavg -nan
scalar SingleCell.ue[1].cellularNic.rlc.um rlcThroughputDl:simu5g_rateavg 899.60006513604196
scalar SingleCell.ue[1].cellularNic.rlc.um rlcDelayUl:mean -nan
scalar SingleCell.ue[1].cellularNic.rlc.um rlcDelayDl:mean 0.004749612503097759
scalar SingleCell.ue[1].cellularNic.rlc.um sentPacketToLowerLayer:count 0
scalar SingleCell.ue[1].cellularNic.rlc.um sentPacketToLowerLayer:sum(packetBytes) 0
scalar SingleCell.ue[1].cellularNic.rlc.um sentPacketToUpperLayer:count 440
scalar SingleCell.ue[1].cellularNic.rlc.um sentPacketToUpperLayer:sum(packetBytes) 30360
scalar SingleCell.ue[1].cellularNic.rlc.um receivedPacketFromLowerLayer:count 440
scalar SingleCell.ue[1].cellularNic.rlc.um receivedPacketFromLowerLayer:sum(packetBytes) 31240
scalar SingleCell.ue[1].cellularNic.rlc.um receivedPacketFromUpperLayer:count 0
scalar SingleCell.ue[1].cellularNic.rlc.um receivedPacketFromUpperLayer:sum(packetBytes) 0
scalar SingleCell.ue[1].cellularNic.rlc.am rlcPacketLossTotal:mean -nan
scalar SingleCell.ue[1].cellularNic.rlc.am rlcCellThroughputUl:simu5g_rateavg -nan
scalar SingleCell.ue[1].cellularNic.rlc.am rlcCellThroughputDl:simu5g_rateavg -nan
scalar SingleCell.ue[1].cellularNic.rlc.am rlcPduThroughputUl:simu5g_rateavg -nan
scalar SingleCell.ue[1].cellularNic.rlc.am rlcPduThroughputDl:simu5g_rateavg -nan
scalar SingleCell.ue[1].cellularNic.rlc.am rlcPduDelayUl:mean -nan
scalar SingleCell.ue[1].cellularNic.rlc.am rlcPduDelayDl:mean -nan
scalar SingleCell.ue[1].cellularNic.rlc.am rlcThroughputUl:simu5g_rateavg -nan
scalar SingleCell.ue[1].cellularNic.rlc.am rlcThroughputDl:simu5g_rateavg -nan
scalar SingleCell.ue[1].cellularNic.rlc.am rlcDelayUl:mean -nan
scalar SingleCell.ue[1].cellularNic.rlc.am rlcDelayDl:mean -nan
scalar SingleCell.ue[1].cellularNic.rlc.am rlcPduPacketLossUl:mean -nan
scalar SingleCell.ue[1].cellularNic.rlc.am rlcPduPacketLossDl:mean -nan
scalar SingleCell.ue[1].cellularNic.rlc.am rlcPacketLossUl:mean -nan
scalar SingleCell.ue[1].cellularNic.rlc.am rlcPacketLossDl:mean -nan
scalar SingleCell.ue[1].cellularNic.rlc.am rlcCellPacketLossUl:mean -nan
scalar SingleCell.ue[1].cellularNic.rlc.am rlcCellPacketLossDl:mean -nan
scalar SingleCell.ue[1].cellularNic.mac harqTxAttemptsUl:mean -nan
scalar SingleCell.ue[1].cellularNic.mac harqTxAttemptsDl:mean 1.0477272727272726
scalar SingleCell.ue[1].cellularNic.mac harqErrorRate_4th_Ul:mean -nan
scalar SingleCell.ue[1].cellularNic.mac harqErrorRate_4th_Dl:mean -nan
scalar SingleCell.ue[1].cellularNic.mac harqErrorRate_3rd_Ul:mean -nan
scalar SingleCell.ue[1].cellularNic.mac harqErrorRate_3rd_Dl:mean 0
scalar SingleCell.ue[1].cellularNic.mac harqErrorRate_2nd_Ul:mean -nan
scalar SingleCell.ue[1].cellularNic.mac harqErrorRate_2nd_Dl:mean 0.050000000000000003
scalar SingleCell.ue[1].cellularNic.mac harqErrorRate_1st_Ul:mean -nan
scalar SingleCell.ue[1].cellularNic.mac harqErrorRate_1st_Dl:mean 0.045454545454545456
scalar SingleCell.ue[1].cellularNic.mac harqErrorRateUl:mean -nan
scalar SingleCell.ue[1].cellularNic.mac harqErrorRateDl:mean 0.045553145336225599
scalar SingleCell.ue[1].cellularNic.mac macCellPacketLossUl:mean -nan
scalar SingleCell.ue[1].cellularNic.mac macCellPacketLossDl:mean -nan
scalar SingleCell.ue[1].cellularNic.mac macPacketLossUl:mean -nan
scalar SingleCell.ue[1].cellularNic.mac macPacketLossDl:mean 0
scalar SingleCell.ue[1].cellularNic.mac macThroughputUl:simu5g_rateavg -nan
scalar SingleCell.ue[1].cellularNic.mac macThroughputDl:simu5g_rateavg 951.75079354972445
scalar SingleCell.ue[1].cellularNic.mac macDelayUl:mean -nan
scalar SingleCell.ue[1].cellularNic.mac macDelayDl:mean 0.0042863636363636394
scalar SingleCell.ue[1].cellularNic.mac macCellThroughputUl:simu5g_rateavg -nan
scalar SingleCell.ue[1].cellularNic.mac macCellThroughputDl:simu5g_rateavg -nan
scalar SingleCell.ue[1].cellularNic.mac sentPacketToLowerLayer:count 461
scalar SingleCell.ue[1].cellularNic.mac sentPacketToLowerLayer:sum(packetBytes) 461
scalar SingleCell.ue[1].cellularNic.mac sentPacketToUpperLayer:count 440
scalar SingleCell.ue[1].cellularNic.mac sentPacketToUpperLayer:sum(packetBytes) 31240
scalar SingleCell.ue[1].cellularNic.mac receivedPacketFromLowerLayer:count 461
scalar SingleCell.ue[1].cellularNic.mac receivedPacketFromLowerLayer:sum(packetBytes) 33653
scalar SingleCell.ue[1].cellularNic.mac receivedPacketFromUpperLayer:count 0
scalar SingleCell.ue[1].cellularNic.mac receivedPacketFromUpperLayer:sum(packetBytes) 0
scalar SingleCell.ue[1].cellularNic.mac macBufferOverFlowD2D:mean -nan
scalar SingleCell.ue[1].cellularNic.mac macBufferOverFlowUl:mean -nan
scalar SingleCell.ue[1].cellularNic.mac macBufferOverFlowDl:mean -nan
scalar SingleCell.ue[1].cellularNic.phy distance:mean 360.557919424636
scalar SingleCell.ue[1].cellularNic.phy averageCqiUl:mean -nan
scalar SingleCell.ue[1].cellularNic.phy averageCqiUl:count 0
scalar SingleCell.ue[1].cellularNic.phy averageCqiDl:mean 13.023861171366594
scalar SingleCell.ue[1].cellularNic.phy averageCqiDl:count 461
scalar SingleCell.ue[1].cellularNic.channelModel[0] measuredSinrUl:mean 12.899640337870833
scalar SingleCell.ue[1].cellularNic.channelModel[0] measuredSinrDl:mean 28.283791536009499
scalar SingleCell.ue[1].cellularNic.channelModel[0] rcvdSinrD2D:mean -nan
scalar SingleCell.ue[1].cellularNic.channelModel[0] rcvdSinrUl:mean -nan
scalar SingleCell.ue[1].cellularNic.channelModel[0] rcvdSinrDl:mean 26.106963656267165
scalar SingleCell.ue[1].cellularNic packetDropInterfaceDown:count 0
scalar SingleCell.ue[1].cellularNic packetDropInterfaceDown:sum(packetBytes) 0
scalar SingleCell.ue[1].cellularNic packetDropNoCarrier:count 0
scalar SingleCell.ue[1].cellularNic packetDropNoCarrier:sum(packetBytes) 0
scalar SingleCell.ue[1].encap pauseSent:count 0
scalar SingleCell.ue[1].encap pauseSent:sum 0
scalar SingleCell.ue[1].encap decapPk:count 0
scalar SingleCell.ue[1].encap decapPk:sum(packetBytes) 0
scalar SingleCell.ue[1].encap encapPk:count 0
scalar SingleCell.ue[1].encap encapPk:sum(packetBytes) 0
scalar SingleCell.ue[1].ipv4.ip packetDropAddressResolutionFailed:count 0
scalar SingleCell.ue[1].ipv4.ip packetDropAddressResolutionFailed:sum(packetBytes) 0
scalar SingleCell.ue[1].ipv4.ip packetDropHopLimitReached:count 0
scalar SingleCell.ue[1].ipv4.ip packetDropHopLimitReached:sum(packetBytes) 0
scalar SingleCell.ue[1].ipv4.ip packetDropForwardingDisabled:count 0
scalar SingleCell.ue[1].ipv4.ip packetDropForwardingDisabled:sum(packetBytes) 0
scalar SingleCell.ue[1].ipv4.ip packetDropNoInterfaceFound:count 0
scalar SingleCell.ue[1].ipv4.ip packetDropNoInterfaceFound:sum(packetBytes) 0
scalar SingleCell.ue[1].ipv4.ip packetDropNoRouteFound:count 0
scalar SingleCell.ue[1].ipv4.ip packetDropNoRouteFound:sum(packetBytes) 0
scalar SingleCell.ue[1].ipv4.ip packetDropUndefined:count 0
scalar SingleCell.ue[1].ipv4.ip packetDropUndefined:sum(packetBytes) 0
scalar SingleCell.ue[1].ipv4.arp arpResolutionFailed:count 0
scalar SingleCell.ue[1].ipv4.arp arpResolutionCompleted:count 0
scalar SingleCell.ue[1].ipv4.arp arpResolutionInitiated:count 0
scalar SingleCell.ue[1].ipv4.arp arpReplySent:count 0
scalar SingleCell.ue[1].ipv4.arp arpReplySent:sum(packetBytes) 0
scalar SingleCell.ue[1].ipv4.arp arpRequestSent:count 0
scalar SingleCell.ue[1].ipv4.arp arpRequestSent:sum(packetBytes) 0
scalar SingleCell.ue[1].udp packetReceived:count 440
scalar SingleCell.ue[1].udp packetReceived:sum(packetBytes) 21120
scalar SingleCell.ue[1].udp packetSent:count 0
scalar SingleCell.ue[1].udp packetSent:sum(packetBytes) 0
scalar SingleCell.ue[1].udp passedUpPk:count 440
scalar SingleCell.ue[1].udp droppedPkWrongPort:count 0
scalar SingleCell.ue[1].udp droppedPkBadChecksum:count 0
scalar SingleCell.ue[1].app[0] voipReceivedThroughput:simu5g_rateavg 521.50728413683521
scalar SingleCell.ue[1].app[0] voipPlayoutLoss:mean 0.0060662441614822565
scalar SingleCell.ue[1].app[0] voipJitter:mean 0.0059999999999999993
scalar SingleCell.ue[1].app[0] voipTaildropLoss:mean 0
scalar SingleCell.ue[1].app[0] voipMos:mean 4.2665397463201478
scalar SingleCell.ue[1].app[0] voipFrameDelay:mean 0.004749971303097727
scalar SingleCell.ue[1].app[0] voipFrameLoss:mean 0
scalar SingleCell.ue[1].app[0] voipPlayoutDelay:mean 0.0040000000000000001
scalar SingleCell.ue[2].lo[0].lo rcvdPkFromHl:count 0
scalar SingleCell.ue[2].lo[0].lo rcvdPkFromHl:sum(packetBytes) 0
scalar SingleCell.ue[2].lo[0].lo passedUpPk:count 0
scalar SingleCell.ue[2].lo[0].lo passedUpPk:sum(packetBytes) 0
scalar SingleCell.ue[2].lo[0] packetDropInterfaceDown:count 0
scalar SingleCell.ue[2].lo[0] packetDropInterfaceDown:sum(packetBytes) 0
scalar SingleCell.ue[2].lo[0] packetDropNoCarrier:count 0
scalar SingleCell.ue[2].lo[0] packetDropNoCarrier:sum(packetBytes) 0
scalar SingleCell.ue[2].cellularNic.pdcp sentPacketToLowerLayer:count 0
scalar SingleCell.ue[2].cellularNic.pdcp sentPacketToLowerLayer:sum(packetBytes) 0
scalar SingleCell.ue[2].cellularNic.pdcp sentPacketToUpperLayer:count 649
scalar SingleCell.ue[2].cellularNic.pdcp sentPacketToUpperLayer:sum(packetBytes) 44132
scalar SingleCell.ue[2].cellularNic.pdcp receivedPacketFromLowerLayer:count 649
scalar SingleCell.ue[2].cellularNic.pdcp receivedPacketFromLowerLayer:sum(packetBytes) 44781
scalar SingleCell.ue[2].cellularNic.pdcp receivedPacketFromUpperLayer:count 0
scalar SingleCell.ue[2].cellularNic.pdcp receivedPacketFromUpperLayer:sum(packetBytes) 0
scalar SingleCell.ue[2].cellularNic.rlc.tm rlcPacketLossUl:mean -nan
scalar SingleCell.ue[2].cellularNic.rlc.tm rlcPacketLossUl:sum 0
scalar SingleCell.ue[2].cellularNic.rlc.tm rlcPacketLossDl:mean -nan
scalar SingleCell.ue[2].cellularNic.rlc.tm rlcPacketLossDl:sum 0
scalar SingleCell.ue[2].cellularNic.rlc.tm sentPacketToLowerLayer:count 0
scalar SingleCell.ue[2].cellularNic.rlc.tm sentPacketToLowerLayer:sum(packetBytes) 0
scalar SingleCell.ue[2].cellularNic.rlc.tm sentPacketToUpperLayer:count 0
scalar SingleCell.ue[2].cellularNic.rlc.tm sentPacketToUpperLayer:sum(packetBytes) 0
scalar SingleCell.ue[2].cellularNic.rlc.tm receivedPacketFromLowerLayer:count 0
scalar SingleCell.ue[2].cellularNic.rlc.tm receivedPacketFromLowerLayer:sum(packetBytes) 0
scalar SingleCell.ue[2].cellularNic.rlc.tm receivedPacketFromUpperLayer:count 0
scalar SingleCell.ue[2].cellularNic.rlc.tm receivedPacketFromUpperLayer:sum(packetBytes) 0
scalar SingleCell.ue[2].cellularNic.rlc.um rlcCellThroughputUl:simu5g_rateavg -nan
scalar SingleCell.ue[2].cellularNic.rlc.um rlcCellThroughputDl:simu5g_rateavg -nan
scalar SingleCell.ue[2].cellularNic.rlc.um rlcPduThroughputUl:simu5g_rateavg -nan
scalar SingleCell.ue[2].cellularNic.rlc.um rlcPduThroughputDl:simu5g_rateavg 0
scalar SingleCell.ue[2].cellularNic.rlc.um rlcPduDelayUl:mean -nan
scalar SingleCell.ue[2].cellularNic.rlc.um rlcPduDelayDl:mean 0.004120184899845919
scalar SingleCell.ue[2].cellularNic.rlc.um rlcThroughputUl:simu5g_rateavg -nan
scalar SingleCell.ue[2].cellularNic.rlc.um rlcThroughputDl:simu5g_rateavg 2216.6842395430322
scalar SingleCell.ue[2].cellularNic.rlc.um rlcDelayUl:mean -nan
scalar SingleCell.ue[2].cellularNic.rlc.um rlcDelayDl:mean 0.0045755838048844128
scalar SingleCell.ue[2].cellularNic.rlc.um sentPacketToLowerLayer:count 0
scalar SingleCell.ue[2].cellularNic.rlc.um sentPacketToLowerLayer:sum(packetBytes) 0
scalar SingleCell.ue[2].cellularNic.rlc.um sentPacketToUpperLayer:count 649
scalar SingleCell.ue[2].cellularNic.rlc.um sentPacketToUpperLayer:sum(packetBytes) 44781
scalar SingleCell.ue[2].cellularNic.rlc.um receivedPacketFromLowerLayer:count 649
scalar SingleCell.ue[2].cellularNic.rlc.um receivedPacketFromLowerLayer:sum(packetBytes) 46079
scalar SingleCell.ue[2].cellularNic.rlc.um receivedPacketFromUpperLayer:count 0
scalar SingleCell.ue[2].cellularNic.rlc.um receivedPacketFromUpperLayer:sum(packetBytes) 0
scalar SingleCell.ue[2].cellularNic.rlc.am rlcPacketLossTotal:mean -nan
scalar SingleCell.ue[2].cellularNic.rlc.am rlcCellThroughputUl:simu5g_rateavg -nan
scalar SingleCell.ue[2].cellularNic.rlc.am rlcCellThroughputDl:simu5g_rateavg -nan
scalar SingleCell.ue[2].cellularNic.rlc.am rlcPduThroughputUl:simu5g_rateavg -nan
scalar SingleCell.ue[2].cellularNic.rlc.am rlcPduThroughputDl:simu5g_rateavg -nan
scalar SingleCell.ue[2].cellularNic.rlc.am rlcPduDelayUl:mean -nan
scalar SingleCell.ue[2].cellularNic.rlc.am rlcPduDelayDl:mean -nan
scalar SingleCell.ue[2].cellularNic.rlc.am rlcThroughputUl:simu5g_rateavg -nan
scalar SingleCell.ue[2].cellularNic.rlc.am rlcThroughputDl:simu5g_rateavg -nan
scalar SingleCell.ue[2].cellularNic.rlc.am rlcDelayUl:mean -nan
scalar SingleCell.ue[2].cellularNic.rlc.am rlcDelayDl:mean -nan
scalar SingleCell.ue[2].cellularNic.rlc.am rlcPduPacketLossUl:mean -nan
scalar SingleCell.ue[2].cellularNic.rlc.am rlcPduPacketLossDl:mean -nan
scalar SingleCell.ue[2].cellularNic.rlc.am rlcPacketLossUl:mean -nan
scalar SingleCell.ue[2].cellularNic.rlc.am rlcPacketLossDl:mean -nan
scalar SingleCell.ue[2].cellularNic.rlc.am rlcCellPacketLossUl:mean -nan
scalar SingleCell.ue[2].cellularNic.rlc.am rlcCellPacketLossDl:mean -nan
scalar SingleCell.ue[2].cellularNic.mac harqTxAttemptsUl:mean -nan
scalar SingleCell.ue[2].cellularNic.mac harqTxAttemptsDl:mean 1.0200308166409862
scalar SingleCell.ue[2].cellularNic.mac harqErrorRate_4th_Ul:mean -nan
scalar SingleCell.ue[2].cellularNic.mac harqErrorRate_4th_Dl:mean -nan
scalar SingleCell.ue[2].cellularNic.mac harqErrorRate_3rd_Ul:mean -nan
scalar SingleCell.ue[2].cellularNic.mac harqErrorRate_3rd_Dl:mean -nan
scalar SingleCell.ue[2].cellularNic.mac harqErrorRate_2nd_Ul:mean -nan
scalar SingleCell.ue[2].cellularNic.mac harqErrorRate_2nd_Dl:mean 0
scalar SingleCell.ue[2].cellularNic.mac harqErrorRate_1st_Ul:mean -nan
scalar SingleCell.ue[2].cellularNic.mac harqErrorRate_1st_Dl:mean 0.020030816640986132
scalar SingleCell.ue[2].cellularNic.mac harqErrorRateUl:mean -nan
scalar SingleCell.ue[2].cellularNic.mac harqErrorRateDl:mean 0.019637462235649546
scalar SingleCell.ue[2].cellularNic.mac macCellPacketLossUl:mean -nan
scalar SingleCell.ue[2].cellularNic.mac macCellPacketLossDl:mean -nan
scalar SingleCell.ue[2].cellularNic.mac macPacketLossUl:mean -nan
scalar SingleCell.ue[2].cellularNic.mac macPacketLossDl:mean 0
scalar SingleCell.ue[2].cellularNic.mac macThroughputUl:simu5g_rateavg -nan
scalar SingleCell.ue[2].cellularNic.mac macThroughputDl:simu5g_rateavg 2345.1876737194461
scalar SingleCell.ue[2].cellularNic.mac macDelayUl:mean -nan
scalar SingleCell.ue[2].cellularNic.mac macDelayDl:mean 0.004120184899845919
scalar SingleCell.ue[2].cellularNic.mac macCellThroughputUl:simu5g_rateavg -nan
scalar SingleCell.ue[2].cellularNic.mac macCellThroughputDl:simu5g_rateavg -nan
scalar SingleCell.ue[2].cellularNic.mac sentPacketToLowerLayer:count 662
scalar SingleCell.ue[2].cellularNic.mac sentPacketToLowerLayer:sum(packetBytes) 662
scalar SingleCell.ue[2].cellularNic.mac sentPacketToUpperLayer:count 649
scalar SingleCell.ue[2].cellularNic.mac sentPacketToUpperLayer:sum(packetBytes) 46079
scalar SingleCell.ue[2].cellularNic.mac receivedPacketFromLowerLayer:count 662
scalar SingleCell.ue[2].cellularNic.mac receivedPacketFromLowerLayer:sum(packetBytes) 48326
scalar SingleCell.ue[2].cellularNic.mac receivedPacketFromUpperLayer:count 0
scalar SingleCell.ue[2].cellularNic.mac receivedPacketFromUpperLayer:sum(packetBytes) 0
scalar SingleCell.ue[2].cellularNic.mac macBufferOverFlowD2D:mean -nan
scalar SingleCell.ue[2].cellularNic.mac macBufferOverFlowUl:mean -nan
scalar SingleCell.ue[2].cellularNic.mac macBufferOverFlowDl:mean -nan
scalar SingleCell.ue[2].cellularNic.phy distance:mean 257.51801832445585
scalar SingleCell.ue[2].cellularNic.phy averageCqiUl:mean -nan
scalar SingleCell.ue[2].cellularNic.phy averageCqiUl:count 0
scalar SingleCell.ue[2].cellularNic.phy averageCqiDl:mean 14.049848942598187
scalar SingleCell.ue[2].cellularNic.phy averageCqiDl:count 662
scalar SingleCell.ue[2].cellularNic.channelModel[0] measuredSinrUl:mean 32.576443622592485
scalar SingleCell.ue[2].cellularNic.channelModel[0] measuredSinrDl:mean 34.133492279770742
scalar SingleCell.ue[2].cellularNic.channelModel[0] rcvdSinrD2D:mean -nan
scalar SingleCell.ue[2].cellularNic.channelModel[0] rcvdSinrUl:mean -nan
scalar SingleCell.ue[2].cellularNic.channelModel[0] rcvdSinrDl:mean 33.224604555228346
scalar SingleCell.ue[2].cellularNic packetDropInterfaceDown:count 0
scalar SingleCell.ue[2].cellularNic packetDropInterfaceDown:sum(packetBytes) 0
scalar SingleCell.ue[2].cellularNic packetDropNoCarrier:count 0
scalar SingleCell.ue[2].cellularNic packetDropNoCarrier:sum(packetBytes) 0
scalar SingleCell.ue[2].encap pauseSent:count 0
scalar SingleCell.ue[2].encap pauseSent:sum 0
scalar SingleCell.ue[2].encap decapPk:count 0
scalar SingleCell.ue[2].encap decapPk:sum(packetBytes) 0
scalar SingleCell.ue[2].encap encapPk:count 0
scalar SingleCell.ue[2].encap encapPk:sum(packetBytes) 0
scalar SingleCell.ue[2].ipv4.ip packetDropAddressResolutionFailed:count 0
scalar SingleCell.ue[2].ipv4.ip packetDropAddressResolutionFailed:sum(packetBytes) 0
scalar SingleCell.ue[2].ipv4.ip packetDropHopLimitReached:count 0
scalar SingleCell.ue[2].ipv4.ip packetDropHopLimitReached:sum(packetBytes) 0
scalar SingleCell.ue[2].ipv4.ip packetDropForwardingDisabled:count 0
scalar SingleCell.ue[2].ipv4.ip packetDropForwardingDisabled:sum(packetBytes) 0
scalar SingleCell.ue[2].ipv4.ip packetDropNoInterfaceFound:count 0
scalar SingleCell.ue[2].ipv4.ip packetDropNoInterfaceFound:sum(packetBytes) 0
scalar SingleCell.ue[2].ipv4.ip packetDropNoRouteFound:count 0
scalar SingleCell.ue[2].ipv4.ip packetDropNoRouteFound:sum(packetBytes) 0
scalar SingleCell.ue[2].ipv4.ip packetDropUndefined:count 0
scalar SingleCell.ue[2].ipv4.ip packetDropUndefined:sum(packetBytes) 0
scalar SingleCell.ue[2].ipv4.arp arpResolutionFailed:count 0
scalar SingleCell.ue[2].ipv4.arp arpResolutionCompleted:count 0
scalar SingleCell.ue[2].ipv4.arp arpResolutionInitiated:count 0
scalar SingleCell.ue[2].ipv4.arp arpReplySent:count 0
scalar SingleCell.ue[2].ipv4.arp arpReplySent:sum(packetBytes) 0
scalar SingleCell.ue[2].ipv4.arp arpRequestSent:count 0
scalar SingleCell.ue[2].ipv4.arp arpRequestSent:sum(packetBytes) 0
scalar SingleCell.ue[2].udp packetReceived:count 649
scalar SingleCell.ue[2].udp packetReceived:sum(packetBytes) 31152
scalar SingleCell.ue[2].udp packetSent:count 0
scalar SingleCell.ue[2].udp packetSent:sum(packetBytes) 0
scalar SingleCell.ue[2].udp passedUpPk:count 649
scalar SingleCell.ue[2].udp droppedPkWrongPort:count 0
scalar SingleCell.ue[2].udp droppedPkBadChecksum:count 0
scalar SingleCell.ue[2].app[0] voipReceivedThroughput:simu5g_rateavg 1285.0343417640779
scalar SingleCell.ue[2].app[0] voipPlayoutLoss:mean 0.0047071215786961594
scalar SingleCell.ue[2].app[0] voipJitter:mean 0.0060000000000000001
scalar SingleCell.ue[2].app[0] voipTaildropLoss:mean 0
scalar SingleCell.ue[2].app[0] voipMos:mean 4.3007078648461068
scalar SingleCell.ue[2].app[0] voipFrameDelay:mean 0.0045759426048843886
scalar SingleCell.ue[2].app[0] voipFrameLoss:mean 0
scalar SingleCell.ue[2].app[0] voipPlayoutDelay:mean 0.002
scalar SingleCell.ue[3].lo[0].lo rcvdPkFromHl:count 0
scalar SingleCell.ue[3].lo[0].lo rcvdPkFromHl:sum(packetBytes) 0
scalar SingleCell.ue[3].lo[0].lo passedUpPk:count 0
scalar SingleCell.ue[3].lo[0].lo passedUpPk:sum(packetBytes) 0
scalar SingleCell.ue[3].lo[0] packetDropInterfaceDown:count 0
scalar SingleCell.ue[3].lo[0] packetDropInterfaceDown:sum(packetBytes) 0
scalar SingleCell.ue[3].lo[0] packetDropNoCarrier:count 0
scalar SingleCell.ue[3].lo[0] packetDropNoCarrier:sum(packetBytes) 0
scalar SingleCell.ue[3].cellularNic.pdcp sentPacketToLowerLayer:count 0
scalar SingleCell.ue[3].cellularNic.pdcp sentPacketToLowerLayer:sum(packetBytes) 0
scalar SingleCell.ue[3].cellularNic.pdcp sentPacketToUpperLayer:count 714
scalar SingleCell.ue[3].cellularNic.pdcp sentPacketToUpperLayer:sum(packetBytes) 48552
scalar SingleCell.ue[3].cellularNic.pdcp receivedPacketFromLowerLayer:count 714
scalar SingleCell.ue[3].cellularNic.pdcp receivedPacketFromLowerLayer:sum(packetBytes) 49266
scalar SingleCell.ue[3].cellularNic.pdcp receivedPacketFromUpperLayer:count 0
scalar SingleCell.ue[3].cellularNic.pdcp receivedPacketFromUpperLayer:sum(packetBytes) 0
scalar SingleCell.ue[3].cellularNic.rlc.tm rlcPacketLossUl:mean -nan
scalar SingleCell.ue[3].cellularNic.rlc.tm rlcPacketLossUl:sum 0
scalar SingleCell.ue[3].cellularNic.rlc.tm rlcPacketLossDl:mean -nan
scalar SingleCell.ue[3].cellularNic.rlc.tm rlcPacketLossDl:sum 0
scalar SingleCell.ue[3].cellularNic.rlc.tm sentPacketToLowerLayer:count 0
scalar SingleCell.ue[3].cellularNic.rlc.tm sentPacketToLowerLayer:sum(packetBytes) 0
scalar SingleCell.ue[3].cellularNic.rlc.tm sentPacketToUpperLayer:count 0
scalar SingleCell.ue[3].cellularNic.rlc.tm sentPacketToUpperLayer:sum(packetBytes) 0
scalar SingleCell.ue[3].cellularNic.rlc.tm receivedPacketFromLowerLayer:count 0
scalar SingleCell.ue[3].cellularNic.rlc.tm receivedPacketFromLowerLayer:sum(packetBytes) 0
scalar SingleCell.ue[3].cellularNic.rlc.tm receivedPacketFromUpperLayer:count 0
scalar SingleCell.ue[3].cellularNic.rlc.tm receivedPacketFromUpperLayer:sum(packetBytes) 0
scalar SingleCell.ue[3].cellularNic.rlc.um rlcCellThroughputUl:simu5g_rateavg -nan
scalar SingleCell.ue[3].cellularNic.rlc.um rlcCellThroughputDl:simu5g_rateavg -nan
scalar SingleCell.ue[3].cellularNic.rlc.um rlcPduThroughputUl:simu5g_rateavg -nan
scalar SingleCell.ue[3].cellularNic.rlc.um rlcPduThroughputDl:simu5g_rateavg 0
scalar SingleCell.ue[3].cellularNic.rlc.um rlcPduDelayUl:mean -nan
scalar SingleCell.ue[3].cellularNic.rlc.um rlcPduDelayDl:mean 0.0040756302521008422
scalar SingleCell.ue[3].cellularNic.rlc.um rlcThroughputUl:simu5g_rateavg -nan
scalar SingleCell.ue[3].cellularNic.rlc.um rlcThroughputDl:simu5g_rateavg 2753.4385880068521
scalar SingleCell.ue[3].cellularNic.rlc.um rlcDelayUl:mean -nan
scalar SingleCell.ue[3].cellularNic.rlc.um rlcDelayDl:mean 0.0048243686184551949
scalar SingleCell.ue[3].cellularNic.rlc.um sentPacketToLowerLayer:count 0
scalar SingleCell.ue[3].cellularNic.rlc.um sentPacketToLowerLayer:sum(packetBytes) 0
scalar SingleCell.ue[3].cellularNic.rlc.um sentPacketToUpperLayer:count 714
scalar SingleCell.ue[3].cellularNic.rlc.um sentPacketToUpperLayer:sum(packetBytes) 49266
scalar SingleCell.ue[3].cellularNic.rlc.um receivedPacketFromLowerLayer:count 714
scalar SingleCell.ue[3].cellularNic.rlc.um receivedPacketFromLowerLayer:sum(packetBytes) 50694
scalar SingleCell.ue[3].cellularNic.rlc.um receivedPacketFromUpperLayer:count 0
scalar SingleCell.ue[3].cellularNic.rlc.um receivedPacketFromUpperLayer:sum(packetBytes) 0
scalar SingleCell.ue[3].cellularNic.rlc.am rlcPacketLossTotal:mean -nan
scalar SingleCell.ue[3].cellularNic.rlc.am rlcCellThroughputUl:simu5g_rateavg -nan
scalar SingleCell.ue[3].cellularNic.rlc.am rlcCellThroughputDl:simu5g_rateavg -nan
scalar SingleCell.ue[3].cellularNic.rlc.am rlcPduThroughputUl:simu5g_rateavg -nan
scalar SingleCell.ue[3].cellularNic.rlc.am rlcPduThroughputDl:simu5g_rateavg -nan
scalar SingleCell.ue[3].cellularNic.rlc.am rlcPduDelayUl:mean -nan
scalar SingleCell.ue[3].cellularNic.rlc.am rlcPduDelayDl:mean -nan
scalar SingleCell.ue[3].cellularNic.rlc.am rlcThroughputUl:simu5g_rateavg -nan
scalar SingleCell.ue[3].cellularNic.rlc.am rlcThroughputDl:simu5g_rateavg -nan
scalar SingleCell.ue[3].cellularNic.rlc.am rlcDelayUl:mean -nan
scalar SingleCell.ue[3].cellularNic.rlc.am rlcDelayDl:mean -nan
scalar SingleCell.ue[3].cellularNic.rlc.am rlcPduPacketLossUl:mean -nan
scalar SingleCell.ue[3].cellularNic.rlc.am rlcPduPacketLossDl:mean -nan
scalar SingleCell.ue[3].cellularNic.rlc.am rlcPacketLossUl:mean -nan
scalar SingleCell.ue[3].cellularNic.rlc.am rlcPacketLossDl:mean -nan
scalar SingleCell.ue[3].cellularNic.rlc.am rlcCellPacketLossUl:mean -nan
scalar SingleCell.ue[3].cellularNic.rlc.am rlcCellPacketLossDl:mean -nan
scalar SingleCell.ue[3].cellularNic.mac harqTxAttemptsUl:mean -nan
scalar SingleCell.ue[3].cellularNic.mac harqTxAttemptsDl:mean 1.0126050420168067
scalar SingleCell.ue[3].cellularNic.mac harqErrorRate_4th_Ul:mean -nan
scalar SingleCell.ue[3].cellularNic.mac harqErrorRate_4th_Dl:mean -nan
scalar SingleCell.ue[3].cellularNic.mac harqErrorRate_3rd_Ul:mean -nan
scalar SingleCell.ue[3].cellularNic.mac harqErrorRate_3rd_Dl:mean -nan
scalar SingleCell.ue[3].cellularNic.mac harqErrorRate_2nd_Ul:mean -nan
scalar SingleCell.ue[3].cellularNic.mac harqErrorRate_2nd_Dl:mean 0
scalar SingleCell.ue[3].cellularNic.mac harqErrorRate_1st_Ul:mean -nan
scalar SingleCell.ue[3].cellularNic.mac harqErrorRate_1st_Dl:mean 0.012605042016806723
scalar SingleCell.ue[3].cellularNic.mac harqErrorRateUl:mean -nan
scalar SingleCell.ue[3].cellularNic.mac harqErrorRateDl:mean 0.012448132780082987
scalar SingleCell.ue[3].cellularNic.mac macCellPacketLossUl:mean -nan
scalar SingleCell.ue[3].cellularNic.mac macCellPacketLossDl:mean -nan
scalar SingleCell.ue[3].cellularNic.mac macPacketLossUl:mean -nan
scalar SingleCell.ue[3].cellularNic.mac macPacketLossDl:mean 0
scalar SingleCell.ue[3].cellularNic.mac macThroughputUl:simu5g_rateavg -nan
scalar SingleCell.ue[3].cellularNic.mac macThroughputDl:simu5g_rateavg 2913.058216297105
scalar SingleCell.ue[3].cellularNic.mac macDelayUl:mean -nan
scalar SingleCell.ue[3].cellularNic.mac macDelayDl:mean 0.0040756302521008422
scalar SingleCell.ue[3].cellularNic.mac macCellThroughputUl:simu5g_rateavg -nan
scalar SingleCell.ue[3].cellularNic.mac macCellThroughputDl:simu5g_rateavg -nan
scalar SingleCell.ue[3].cellularNic.mac sentPacketToLowerLayer:count 723
scalar SingleCell.ue[3].cellularNic.mac sentPacketToLowerLayer:sum(packetBytes) 723
scalar SingleCell.ue[3].cellularNic.mac sentPacketToUpperLayer:count 714
scalar SingleCell.ue[3].cellularNic.mac sentPacketToUpperLayer:sum(packetBytes) 50694
scalar SingleCell.ue[3].cellularNic.mac receivedPacketFromLowerLayer:count 723
scalar SingleCell.ue[3].cellularNic.mac receivedPacketFromLowerLayer:sum(packetBytes) 52779
scalar SingleCell.ue[3].cellularNic.mac receivedPacketFromUpperLayer:count 0
scalar SingleCell.ue[3].cellularNic.mac receivedPacketFromUpperLayer:sum(packetBytes) 0
scalar SingleCell.ue[3].cellularNic.mac macBufferOverFlowD2D:mean -nan
scalar SingleCell.ue[3].cellularNic.mac macBufferOverFlowUl:mean -nan
scalar SingleCell.ue[3].cellularNic.mac macBufferOverFlowDl:mean -nan
scalar SingleCell.ue[3].cellularNic.phy distance:mean 331.57484201349411
scalar SingleCell.ue[3].cellularNic.phy averageCqiUl:mean -nan
scalar SingleCell.ue[3].cellularNic.phy averageCqiUl:count 0
scalar SingleCell.ue[3].cellularNic.phy averageCqiDl:mean 14.008298755186722
scalar SingleCell.ue[3].cellularNic.phy averageCqiDl:count 723
scalar SingleCell.ue[3].cellularNic.channelModel[0] measuredSinrUl:mean 23.58443405051479
scalar SingleCell.ue[3].cellularNic.channelModel[0] measuredSinrDl:mean 33.988154798069232
scalar SingleCell.ue[3].cellularNic.channelModel[0] rcvdSinrD2D:mean -nan
scalar SingleCell.ue[3].cellularNic.channelModel[0] rcvdSinrUl:mean -nan
scalar SingleCell.ue[3].cellularNic.channelModel[0] rcvdSinrDl:mean 32.395345115684187
scalar SingleCell.ue[3].cellularNic packetDropInterfaceDown:count 0
scalar SingleCell.ue[3].cellularNic packetDropInterfaceDown:sum(packetBytes) 0
scalar SingleCell.ue[3].cellularNic packetDropNoCarrier:count 0
scalar SingleCell.ue[3].cellularNic packetDropNoCarrier:sum(packetBytes) 0
scalar SingleCell.ue[3].encap pauseSent:count 0
scalar SingleCell.ue[3].encap pauseSent:sum 0
scalar SingleCell.ue[3].encap decapPk:count 0
scalar SingleCell.ue[3].encap decapPk:sum(packetBytes) 0
scalar SingleCell.ue[3].encap encapPk:count 0
scalar SingleCell.ue[3].encap encapPk:sum(packetBytes) 0
scalar SingleCell.ue[3].ipv4.ip packetDropAddressResolutionFailed:count 0
scalar SingleCell.ue[3].ipv4.ip packetDropAddressResolutionFailed:sum(packetBytes) 0
scalar SingleCell.ue[3].ipv4.ip packetDropHopLimitReached:count 0
scalar SingleCell.ue[3].ipv4.ip packetDropHopLimitReached:sum(packetBytes) 0
scalar SingleCell.ue[3].ipv4.ip packetDropForwardingDisabled:count 0
scalar SingleCell.ue[3].ipv4.ip packetDropForwardingDisabled:sum(packetBytes) 0
scalar SingleCell.ue[3].ipv4.ip packetDropNoInterfaceFound:count 0
scalar SingleCell.ue[3].ipv4.ip packetDropNoInterfaceFound:sum(packetBytes) 0
scalar SingleCell.ue[3].ipv4.ip packetDropNoRouteFound:count 0
scalar SingleCell.ue[3].ipv4.ip packetDropNoRouteFound:sum(packetBytes) 0
scalar SingleCell.ue[3].ipv4.ip packetDropUndefined:count 0
scalar SingleCell.ue[3].ipv4.ip packetDropUndefined:sum(packetBytes) 0
scalar SingleCell.ue[3].ipv4.arp arpResolutionFailed:count 0
scalar SingleCell.ue[3].ipv4.arp arpResolutionCompleted:count 0
scalar SingleCell.ue[3].ipv4.arp arpResolutionInitiated:count 0
scalar SingleCell.ue[3].ipv4.arp arpReplySent:count 0
scalar SingleCell.ue[3].ipv4.arp arpReplySent:sum(packetBytes) 0
scalar SingleCell.ue[3].ipv4.arp arpRequestSent:count 0
scalar SingleCell.ue[3].ipv4.arp arpRequestSent:sum(packetBytes) 0
scalar SingleCell.ue[3].udp packetReceived:count 714
scalar SingleCell.ue[3].udp packetReceived:sum(packetBytes) 34272
scalar SingleCell.ue[3].udp packetSent:count 0
scalar SingleCell.ue[3].udp packetSent:sum(packetBytes) 0
scalar SingleCell.ue[3].udp passedUpPk:count 714
scalar SingleCell.ue[3].udp droppedPkWrongPort:count 0
scalar SingleCell.ue[3].udp droppedPkBadChecksum:count 0
scalar SingleCell.ue[3].app[0] voipReceivedThroughput:simu5g_rateavg 1596.1962829025244
scalar SingleCell.ue[3].app[0] voipPlayoutLoss:mean 0.0011904761904761906
scalar SingleCell.ue[3].app[0] voipJitter:mean 0.006000000000000001
scalar SingleCell.ue[3].app[0] voipTaildropLoss:mean 0
scalar SingleCell.ue[3].app[0] voipMos:mean 4.3829571446689766
scalar SingleCell.ue[3].app[0] voipFrameDelay:mean 0.004824727418455182
scalar SingleCell.ue[3].app[0] voipFrameLoss:mean 0
scalar SingleCell.ue[3].app[0] voipPlayoutDelay:mean 0.0030000000000000001
scalar SingleCell.ue[4].lo[0].lo rcvdPkFromHl:count 0
scalar SingleCell.ue[4].lo[0].lo rcvdPkFromHl:sum(packetBytes) 0
scalar SingleCell.ue[4].lo[0].lo passedUpPk:count 0
scalar SingleCell.ue[4].lo[0].lo passedUpPk:sum(packetBytes) 0
scalar SingleCell.ue[4].lo[0] packetDropInterfaceDown:count 0
scalar SingleCell.ue[4].lo[0] packetDropInterfaceDown:sum(packetBytes) 0
scalar SingleCell.ue[4].lo[0] packetDropNoCarrier:count 0
scalar SingleCell.ue[4].lo[0] packetDropNoCarrier:sum(packetBytes) 0
scalar SingleCell.ue[4].cellularNic.pdcp sentPacketToLowerLayer:count 0
scalar SingleCell.ue[4].cellularNic.pdcp sentPacketToLowerLayer:sum(packetBytes) 0
scalar SingleCell.ue[4].cellularNic.pdcp sentPacketToUpperLayer:count 583
scalar SingleCell.ue[4].cellularNic.pdcp sentPacketToUpperLayer:sum(packetBytes) 39644
scalar SingleCell.ue[4].cellularNic.pdcp receivedPacketFromLowerLayer:count 583
scalar SingleCell.ue[4].cellularNic.pdcp receivedPacketFromLowerLayer:sum(packetBytes) 40227
scalar SingleCell.ue[4].cellularNic.pdcp receivedPacketFromUpperLayer:count 0
scalar SingleCell.ue[4].cellularNic.pdcp receivedPacketFromUpperLayer:sum(packetBytes) 0
scalar SingleCell.ue[4].cellularNic.rlc.tm rlcPacketLossUl:mean -nan
scalar SingleCell.ue[4].cellularNic.rlc.tm rlcPacketLossUl:sum 0
scalar SingleCell.ue[4].cellularNic.rlc.tm rlcPacketLossDl:mean -nan
scalar SingleCell.ue[4].cellularNic.rlc.tm rlcPacketLossDl:sum 0
scalar SingleCell.ue[4].cellularNic.rlc.tm sentPacketToLowerLayer:count 0
scalar SingleCell.ue[4].cellularNic.rlc.tm sentPacketToLowerLayer:sum(packetBytes) 0
scalar SingleCell.ue[4].cellularNic.rlc.tm sentPacketToUpperLayer:count 0
scalar SingleCell.ue[4].cellularNic.rlc.tm sentPacketToUpperLayer:sum(packetBytes) 0
scalar SingleCell.ue[4].cellularNic.rlc.tm receivedPacketFromLowerLayer:count 0
scalar SingleCell.ue[4].cellularNic.rlc.tm receivedPacketFromLowerLayer:sum(packetBytes) 0
scalar SingleCell.ue[4].cellularNic.rlc.tm receivedPacketFromUpperLayer:count 0
scalar SingleCell.ue[4].cellularNic.rlc.tm receivedPacketFromUpperLayer:sum(packetBytes) 0
scalar SingleCell.ue[4].cellularNic.rlc.um rlcCellThroughputUl:simu5g_rateavg -nan
scalar SingleCell.ue[4].cellularNic.rlc.um rlcCellThroughputDl:simu5g_rateavg -nan
scalar SingleCell.ue[4].cellularNic.rlc.um rlcPduThroughputUl:simu5g_rateavg -nan
scalar SingleCell.ue[4].cellularNic.rlc.um rlcPduThroughputDl:simu5g_rateavg 0
scalar SingleCell.ue[4].cellularNic.rlc.um rlcPduDelayUl:mean -nan
scalar SingleCell.ue[4].cellularNic.rlc.um rlcPduDelayDl:mean 0.0040102915951972578
scalar SingleCell.ue[4].cellularNic.rlc.um rlcThroughputUl:simu5g_rateavg -nan
scalar SingleCell.ue[4].cellularNic.rlc.um rlcThroughputDl:simu5g_rateavg 1871.0868842601599
scalar SingleCell.ue[4].cellularNic.rlc.um rlcDelayUl:mean -nan
scalar SingleCell.ue[4].cellularNic.rlc.um rlcDelayDl:mean 0.0046594249093619639
scalar SingleCell.ue[4].cellularNic.rlc.um sentPacketToLowerLayer:count 0
scalar SingleCell.ue[4].cellularNic.rlc.um sentPacketToLowerLayer:sum(packetBytes) 0
scalar SingleCell.ue[4].cellularNic.rlc.um sentPacketToUpperLayer:count 583
scalar SingleCell.ue[4].cellularNic.rlc.um sentPacketToUpperLayer:sum(packetBytes) 40227
scalar SingleCell.ue[4].cellularNic.rlc.um receivedPacketFromLowerLayer:count 583
scalar SingleCell.ue[4].cellularNic.rlc.um receivedPacketFromLowerLayer:sum(packetBytes) 41393
scalar SingleCell.ue[4].cellularNic.rlc.um receivedPacketFromUpperLayer:count 0
scalar SingleCell.ue[4].cellularNic.rlc.um receivedPacketFromUpperLayer:sum(packetBytes) 0
scalar SingleCell.ue[4].cellularNic.rlc.am rlcPacketLossTotal:mean -nan
scalar SingleCell.ue[4].cellularNic.rlc.am rlcCellThroughputUl:simu5g_rateavg -nan
scalar SingleCell.ue[4].cellularNic.rlc.am rlcCellThroughputDl:simu5g_rateavg -nan
scalar SingleCell.ue[4].cellularNic.rlc.am rlcPduThroughputUl:simu5g_rateavg -nan
scalar SingleCell.ue[4].cellularNic.rlc.am rlcPduThroughputDl:simu5g_rateavg -nan
scalar SingleCell.ue[4].cellularNic.rlc.am rlcPduDelayUl:mean -nan
scalar SingleCell.ue[4].cellularNic.rlc.am rlcPduDelayDl:mean -nan
scalar SingleCell.ue[4].cellularNic.rlc.am rlcThroughputUl:simu5g_rateavg -nan
scalar SingleCell.ue[4].cellularNic.rlc.am rlcThroughputDl:simu5g_rateavg -nan
scalar SingleCell.ue[4].cellularNic.rlc.am rlcDelayUl:mean -nan
scalar SingleCell.ue[4].cellularNic.rlc.am rlcDelayDl:mean -nan
scalar SingleCell.ue[4].cellularNic.rlc.am rlcPduPacketLossUl:mean -nan
scalar SingleCell.ue[4].cellularNic.rlc.am rlcPduPacketLossDl:mean -nan
scalar SingleCell.ue[4].cellularNic.rlc.am rlcPacketLossUl:mean -nan
scalar SingleCell.ue[4].cellularNic.rlc.am rlcPacketLossDl:mean -nan
scalar SingleCell.ue[4].cellularNic.rlc.am rlcCellPacketLossUl:mean -nan
scalar SingleCell.ue[4].cellularNic.rlc.am rlcCellPacketLossDl:mean -nan
scalar SingleCell.ue[4].cellularNic.mac harqTxAttemptsUl:mean -nan
scalar SingleCell.ue[4].cellularNic.mac harqTxAttemptsDl:mean 1.0017152658662092
scalar SingleCell.ue[4].cellularNic.mac harqErrorRate_4th_Ul:mean -nan
scalar SingleCell.ue[4].cellularNic.mac harqErrorRate_4th_Dl:mean -nan
scalar SingleCell.ue[4].cellularNic.mac harqErrorRate_3rd_Ul:mean -nan
scalar SingleCell.ue[4].cellularNic.mac harqErrorRate_3rd_Dl:mean -nan
scalar SingleCell.ue[4].cellularNic.mac harqErrorRate_2nd_Ul:mean -nan
scalar SingleCell.ue[4].cellularNic.mac harqErrorRate_2nd_Dl:mean 0
scalar SingleCell.ue[4].cellularNic.mac harqErrorRate_1st_Ul:mean -nan
[...]
scalar SingleCell.ue[4].cellularNic.phy distance:vector:endtime 20
scalar SingleCell.ue[4].cellularNic.phy servingCell:vector:count 202
scalar SingleCell.ue[4].cellularNic.phy servingCell:vector:sum 201
scalar SingleCell.ue[4].cellularNic.phy servingCell:vector:sumweights 202
scalar SingleCell.ue[4].cellularNic.phy servingCell:vector:mean 0.99504950495049505
scalar SingleCell.ue[4].cellularNic.phy servingCell:vector:stddev 0.07035975447302889
scalar SingleCell.ue[4].cellularNic.phy servingCell:vector:min 0
scalar SingleCell.ue[4].cellularNic.phy servingCell:vector:max 1
scalar SingleCell.ue[4].cellularNic.phy servingCell:vector:starttime 0
scalar SingleCell.ue[4].cellularNic.phy servingCell:vector:endtime 20
scalar SingleCell.ue[4].cellularNic.phy averageCqiDl:vector:count 584
scalar SingleCell.ue[4].cellularNic.phy averageCqiDl:vector:sum 8760
scalar SingleCell.ue[4].cellularNic.phy averageCqiDl:vector:sumweights 584
scalar SingleCell.ue[4].cellularNic.phy averageCqiDl:vector:mean 15
scalar SingleCell.ue[4].cellularNic.phy averageCqiDl:vector:stddev 0
scalar SingleCell.ue[4].cellularNic.phy averageCqiDl:vector:min 15
scalar SingleCell.ue[4].cellularNic.phy averageCqiDl:vector:max 15
scalar SingleCell.ue[4].cellularNic.phy averageCqiDl:vector:starttime 0.012
scalar SingleCell.ue[4].cellularNic.phy averageCqiDl:vector:endtime 19.959
scalar SingleCell.ue[4].cellularNic.phy averageCqiUl:vector:count 0
scalar SingleCell.ue[4].cellularNic.phy averageCqiUl:vector:sum 0
scalar SingleCell.ue[4].cellularNic.phy averageCqiUl:vector:sumweights 0
scalar SingleCell.ue[4].cellularNic.phy averageCqiUl:vector:mean -nan
scalar SingleCell.ue[4].cellularNic.phy averageCqiUl:vector:stddev nan
scalar SingleCell.ue[4].cellularNic.phy averageCqiUl:vector:min inf
scalar SingleCell.ue[4].cellularNic.phy averageCqiUl:vector:max -inf
scalar SingleCell.ue[4].cellularNic.phy averageCqiUl:vector:starttime nan
scalar SingleCell.ue[4].cellularNic.phy averageCqiUl:vector:endtime nan
scalar SingleCell.ue[4].cellularNic.channelModel[0] rcvdSinrDl:vector:count 584
scalar SingleCell.ue[4].cellularNic.channelModel[0] rcvdSinrDl:vector:sum 31101.556245984953
scalar SingleCell.ue[4].cellularNic.channelModel[0] rcvdSinrDl:vector:sumweights 584
scalar SingleCell.ue[4].cellularNic.channelModel[0] rcvdSinrDl:vector:mean 53.256089462303002
scalar SingleCell.ue[4].cellularNic.channelModel[0] rcvdSinrDl:vector:stddev 5.8341948063335138
scalar SingleCell.ue[4].cellularNic.channelModel[0] rcvdSinrDl:vector:min 21.731415679564719
scalar SingleCell.ue[4].cellularNic.channelModel[0] rcvdSinrDl:vector:max 61.900959518838569
scalar SingleCell.ue[4].cellularNic.channelModel[0] rcvdSinrDl:vector:starttime 0.012
scalar SingleCell.ue[4].cellularNic.channelModel[0] rcvdSinrDl:vector:endtime 19.959
scalar SingleCell.ue[4].cellularNic.channelModel[0] rcvdSinrUl:vector:count 0
scalar SingleCell.ue[4].cellularNic.channelModel[0] rcvdSinrUl:vector:sum 0
scalar SingleCell.ue[4].cellularNic.channelModel[0] rcvdSinrUl:vector:sumweights 0
scalar SingleCell.ue[4].cellularNic.channelModel[0] rcvdSinrUl:vector:mean -nan
scalar SingleCell.ue[4].cellularNic.channelModel[0] rcvdSinrUl:vector:stddev nan
scalar SingleCell.ue[4].cellularNic.channelModel[0] rcvdSinrUl:vector:min inf
scalar SingleCell.ue[4].cellularNic.channelModel[0] rcvdSinrUl:vector:max -inf
scalar SingleCell.ue[4].cellularNic.channelModel[0] rcvdSinrUl:vector:starttime nan
scalar SingleCell.ue[4].cellularNic.channelModel[0] rcvdSinrUl:vector:endtime nan
scalar SingleCell.ue[4].cellularNic.channelModel[0] rcvdSinrD2D:vector:count 0
scalar SingleCell.ue[4].cellularNic.channelModel[0] rcvdSinrD2D:vector:sum 0
scalar SingleCell.ue[4].cellularNic.channelModel[0] rcvdSinrD2D:vector:sumweights 0
scalar SingleCell.ue[4].cellularNic.channelModel[0] rcvdSinrD2D:vector:mean -nan
scalar SingleCell.ue[4].cellularNic.channelModel[0] rcvdSinrD2D:vector:stddev nan
scalar SingleCell.ue[4].cellularNic.channelModel[0] rcvdSinrD2D:vector:min inf
scalar SingleCell.ue[4].cellularNic.channelModel[0] rcvdSinrD2D:vector:max -inf
scalar SingleCell.ue[4].cellularNic.channelModel[0] rcvdSinrD2D:vector:starttime nan
scalar SingleCell.ue[4].cellularNic.channelModel[0] rcvdSinrD2D:vector:endtime nan
scalar SingleCell.ue[4].cellularNic.channelModel[0] measuredSinrDl:vector:count 3334
scalar SingleCell.ue[4].cellularNic.channelModel[0] measuredSinrDl:vector:sum 163280.63412007299
scalar SingleCell.ue[4].cellularNic.channelModel[0] measuredSinrDl:vector:sumweights 3334
scalar SingleCell.ue[4].cellularNic.channelModel[0] measuredSinrDl:vector:mean 48.974395356950509
scalar SingleCell.ue[4].cellularNic.channelModel[0] measuredSinrDl:vector:stddev 3.4890655730264482
scalar SingleCell.ue[4].cellularNic.channelModel[0] measuredSinrDl:vector:min 39.01980254871409
scalar SingleCell.ue[4].cellularNic.channelModel[0] measuredSinrDl:vector:max 56.000963016238053
scalar SingleCell.ue[4].cellularNic.channelModel[0] measuredSinrDl:vector:starttime 0.002
scalar SingleCell.ue[4].cellularNic.channelModel[0] measuredSinrDl:vector:endtime 20
scalar SingleCell.ue[4].cellularNic.channelModel[0] measuredSinrUl:vector:count 3334
scalar SingleCell.ue[4].cellularNic.channelModel[0] measuredSinrUl:vector:sum 104728.71426586689
scalar SingleCell.ue[4].cellularNic.channelModel[0] measuredSinrUl:vector:sumweights 3334
scalar SingleCell.ue[4].cellularNic.channelModel[0] measuredSinrUl:vector:mean 31.412331813397387
scalar SingleCell.ue[4].cellularNic.channelModel[0] measuredSinrUl:vector:stddev 3.6834186804066196
scalar SingleCell.ue[4].cellularNic.channelModel[0] measuredSinrUl:vector:min 18.108486720491317
scalar SingleCell.ue[4].cellularNic.channelModel[0] measuredSinrUl:vector:max 43.436461205677141
scalar SingleCell.ue[4].cellularNic.channelModel[0] measuredSinrUl:vector:starttime 0.002
scalar SingleCell.ue[4].cellularNic.channelModel[0] measuredSinrUl:vector:endtime 20
scalar SingleCell.ue[4].cellularNic packetDropInterfaceDown:vector(packetBytes):count 0
scalar SingleCell.ue[4].cellularNic packetDropInterfaceDown:vector(packetBytes):sum 0
scalar SingleCell.ue[4].cellularNic packetDropInterfaceDown:vector(packetBytes):sumweights 0
scalar SingleCell.ue[4].cellularNic packetDropInterfaceDown:vector(packetBytes):mean -nan
scalar SingleCell.ue[4].cellularNic packetDropInterfaceDown:vector(packetBytes):stddev nan
scalar SingleCell.ue[4].cellularNic packetDropInterfaceDown:vector(packetBytes):min inf
scalar SingleCell.ue[4].cellularNic packetDropInterfaceDown:vector(packetBytes):max -inf
scalar SingleCell.ue[4].cellularNic packetDropInterfaceDown:vector(packetBytes):starttime nan
scalar SingleCell.ue[4].cellularNic packetDropInterfaceDown:vector(packetBytes):endtime nan
scalar SingleCell.ue[4].cellularNic packetDropNoCarrier:vector(packetBytes):count 0
scalar SingleCell.ue[4].cellularNic packetDropNoCarrier:vector(packetBytes):sum 0
scalar SingleCell.ue[4].cellularNic packetDropNoCarrier:vector(packetBytes):sumweights 0
scalar SingleCell.ue[4].cellularNic packetDropNoCarrier:vector(packetBytes):mean -nan
scalar SingleCell.ue[4].cellularNic packetDropNoCarrier:vector(packetBytes):stddev nan
scalar SingleCell.ue[4].cellularNic packetDropNoCarrier:vector(packetBytes):min inf
scalar SingleCell.ue[4].cellularNic packetDropNoCarrier:vector(packetBytes):max -inf
scalar SingleCell.ue[4].cellularNic packetDropNoCarrier:vector(packetBytes):starttime nan
scalar SingleCell.ue[4].cellularNic packetDropNoCarrier:vector(packetBytes):endtime nan
scalar SingleCell.ue[4].encap encapPk:vector(packetBytes):count 0
scalar SingleCell.ue[4].encap encapPk:vector(packetBytes):sum 0
scalar SingleCell.ue[4].encap encapPk:vector(packetBytes):sumweights 0
scalar SingleCell.ue[4].encap encapPk:vector(packetBytes):mean -nan
scalar SingleCell.ue[4].encap encapPk:vector(packetBytes):stddev nan
scalar SingleCell.ue[4].encap encapPk:vector(packetBytes):min inf
scalar SingleCell.ue[4].encap encapPk:vector(packetBytes):max -inf
scalar SingleCell.ue[4].encap encapPk:vector(packetBytes):starttime nan
scalar SingleCell.ue[4].encap encapPk:vector(packetBytes):endtime nan
scalar SingleCell.ue[4].encap decapPk:vector(packetBytes):count 0
scalar SingleCell.ue[4].encap decapPk:vector(packetBytes):sum 0
scalar SingleCell.ue[4].encap decapPk:vector(packetBytes):sumweights 0
scalar SingleCell.ue[4].encap decapPk:vector(packetBytes):mean -nan
scalar SingleCell.ue[4].encap decapPk:vector(packetBytes):stddev nan
scalar SingleCell.ue[4].encap decapPk:vector(packetBytes):min inf
scalar SingleCell.ue[4].encap decapPk:vector(packetBytes):max -inf
scalar SingleCell.ue[4].encap decapPk:vector(packetBytes):starttime nan
scalar SingleCell.ue[4].encap decapPk:vector(packetBytes):endtime nan
scalar SingleCell.ue[4].encap pauseSent:vector:count 0
scalar SingleCell.ue[4].encap pauseSent:vector:sum 0
scalar SingleCell.ue[4].encap pauseSent:vector:sumweights 0
scalar SingleCell.ue[4].encap pauseSent:vector:mean -nan
scalar SingleCell.ue[4].encap pauseSent:vector:stddev nan
scalar SingleCell.ue[4].encap pauseSent:vector:min inf
scalar SingleCell.ue[4].encap pauseSent:vector:max -inf
scalar SingleCell.ue[4].encap pauseSent:vector:starttime nan
scalar SingleCell.ue[4].encap pauseSent:vector:endtime nan
scalar SingleCell.ue[4].ipv4.ip packetDropAddressResolutionFailed:vector(packetBytes):count 0
scalar SingleCell.ue[4].ipv4.ip packetDropAddressResolutionFailed:vector(packetBytes):sum 0
scalar SingleCell.ue[4].ipv4.ip packetDropAddressResolutionFailed:vector(packetBytes):sumweights 0
scalar SingleCell.ue[4].ipv4.ip packetDropAddressResolutionFailed:vector(packetBytes):mean -nan
scalar SingleCell.ue[4].ipv4.ip packetDropAddressResolutionFailed:vector(packetBytes):stddev nan
scalar SingleCell.ue[4].ipv4.ip packetDropAddressResolutionFailed:vector(packetBytes):min inf
scalar SingleCell.ue[4].ipv4.ip packetDropAddressResolutionFailed:vector(packetBytes):max -inf
scalar SingleCell.ue[4].ipv4.ip packetDropAddressResolutionFailed:vector(packetBytes):starttime nan
scalar SingleCell.ue[4].ipv4.ip packetDropAddressResolutionFailed:vector(packetBytes):endtime nan
scalar SingleCell.ue[4].ipv4.ip packetDropHopLimitReached:vector(packetBytes):count 0
scalar SingleCell.ue[4].ipv4.ip packetDropHopLimitReached:vector(packetBytes):sum 0
scalar SingleCell.ue[4].ipv4.ip packetDropHopLimitReached:vector(packetBytes):sumweights 0
scalar SingleCell.ue[4].ipv4.ip packetDropHopLimitReached:vector(packetBytes):mean -nan
scalar SingleCell.ue[4].ipv4.ip packetDropHopLimitReached:vector(packetBytes):stddev nan
scalar SingleCell.ue[4].ipv4.ip packetDropHopLimitReached:vector(packetBytes):min inf
scalar SingleCell.ue[4].ipv4.ip packetDropHopLimitReached:vector(packetBytes):max -inf
scalar SingleCell.ue[4].ipv4.ip packetDropHopLimitReached:vector(packetBytes):starttime nan
scalar SingleCell.ue[4].ipv4.ip packetDropHopLimitReached:vector(packetBytes):endtime nan
scalar SingleCell.ue[4].ipv4.ip packetDropForwardingDisabled:vector(packetBytes):count 0
scalar SingleCell.ue[4].ipv4.ip packetDropForwardingDisabled:vector(packetBytes):sum 0
scalar SingleCell.ue[4].ipv4.ip packetDropForwardingDisabled:vector(packetBytes):sumweights 0
scalar SingleCell.ue[4].ipv4.ip packetDropForwardingDisabled:vector(packetBytes):mean -nan
scalar SingleCell.ue[4].ipv4.ip packetDropForwardingDisabled:vector(packetBytes):stddev nan
scalar SingleCell.ue[4].ipv4.ip packetDropForwardingDisabled:vector(packetBytes):min inf
scalar SingleCell.ue[4].ipv4.ip packetDropForwardingDisabled:vector(packetBytes):max -inf
scalar SingleCell.ue[4].ipv4.ip packetDropForwardingDisabled:vector(packetBytes):starttime nan
scalar SingleCell.ue[4].ipv4.ip packetDropForwardingDisabled:vector(packetBytes):endtime nan
scalar SingleCell.ue[4].ipv4.ip packetDropNoInterfaceFound:vector(packetBytes):count 0
scalar SingleCell.ue[4].ipv4.ip packetDropNoInterfaceFound:vector(packetBytes):sum 0
scalar SingleCell.ue[4].ipv4.ip packetDropNoInterfaceFound:vector(packetBytes):sumweights 0
scalar SingleCell.ue[4].ipv4.ip packetDropNoInterfaceFound:vector(packetBytes):mean -nan
scalar SingleCell.ue[4].ipv4.ip packetDropNoInterfaceFound:vector(packetBytes):stddev nan
scalar SingleCell.ue[4].ipv4.ip packetDropNoInterfaceFound:vector(packetBytes):min inf
scalar SingleCell.ue[4].ipv4.ip packetDropNoInterfaceFound:vector(packetBytes):max -inf
scalar SingleCell.ue[4].ipv4.ip packetDropNoInterfaceFound:vector(packetBytes):starttime nan
scalar SingleCell.ue[4].ipv4.ip packetDropNoInterfaceFound:vector(packetBytes):endtime nan
scalar SingleCell.ue[4].ipv4.ip packetDropNoRouteFound:vector(packetBytes):count 0
scalar SingleCell.ue[4].ipv4.ip packetDropNoRouteFound:vector(packetBytes):sum 0
scalar SingleCell.ue[4].ipv4.ip packetDropNoRouteFound:vector(packetBytes):sumweights 0
scalar SingleCell.ue[4].ipv4.ip packetDropNoRouteFound:vector(packetBytes):mean -nan
scalar SingleCell.ue[4].ipv4.ip packetDropNoRouteFound:vector(packetBytes):stddev nan
scalar SingleCell.ue[4].ipv4.ip packetDropNoRouteFound:vector(packetBytes):min inf
scalar SingleCell.ue[4].ipv4.ip packetDropNoRouteFound:vector(packetBytes):max -inf
scalar SingleCell.ue[4].ipv4.ip packetDropNoRouteFound:vector(packetBytes):starttime nan
scalar SingleCell.ue[4].ipv4.ip packetDropNoRouteFound:vector(packetBytes):endtime nan
scalar SingleCell.ue[4].ipv4.ip packetDropUndefined:vector(packetBytes):count 0
scalar SingleCell.ue[4].ipv4.ip packetDropUndefined:vector(packetBytes):sum 0
scalar SingleCell.ue[4].ipv4.ip packetDropUndefined:vector(packetBytes):sumweights 0
scalar SingleCell.ue[4].ipv4.ip packetDropUndefined:vector(packetBytes):mean -nan
scalar SingleCell.ue[4].ipv4.ip packetDropUndefined:vector(packetBytes):stddev nan
scalar SingleCell.ue[4].ipv4.ip packetDropUndefined:vector(packetBytes):min inf
scalar SingleCell.ue[4].ipv4.ip packetDropUndefined:vector(packetBytes):max -inf
scalar SingleCell.ue[4].ipv4.ip packetDropUndefined:vector(packetBytes):starttime nan
scalar SingleCell.ue[4].ipv4.ip packetDropUndefined:vector(packetBytes):endtime nan
scalar SingleCell.ue[4].ipv4.arp arpRequestSent:vector(packetBytes):count 0
scalar SingleCell.ue[4].ipv4.arp arpRequestSent:vector(packetBytes):sum 0
scalar SingleCell.ue[4].ipv4.arp arpRequestSent:vector(packetBytes):sumweights 0
scalar SingleCell.ue[4].ipv4.arp arpRequestSent:vector(packetBytes):mean -nan
scalar SingleCell.ue[4].ipv4.arp arpRequestSent:vector(packetBytes):stddev nan
scalar SingleCell.ue[4].ipv4.arp arpRequestSent:vector(packetBytes):min inf
scalar SingleCell.ue[4].ipv4.arp arpRequestSent:vector(packetBytes):max -inf
scalar SingleCell.ue[4].ipv4.arp arpRequestSent:vector(packetBytes):starttime nan
scalar SingleCell.ue[4].ipv4.arp arpRequestSent:vector(packetBytes):endtime nan
scalar SingleCell.ue[4].ipv4.arp arpReplySent:vector(packetBytes):count 0
scalar SingleCell.ue[4].ipv4.arp arpReplySent:vector(packetBytes):sum 0
scalar SingleCell.ue[4].ipv4.arp arpReplySent:vector(packetBytes):sumweights 0
scalar SingleCell.ue[4].ipv4.arp arpReplySent:vector(packetBytes):mean -nan
scalar SingleCell.ue[4].ipv4.arp arpReplySent:vector(packetBytes):stddev nan
scalar SingleCell.ue[4].ipv4.arp arpReplySent:vector(packetBytes):min inf
scalar SingleCell.ue[4].ipv4.arp arpReplySent:vector(packetBytes):max -inf
scalar SingleCell.ue[4].ipv4.arp arpReplySent:vector(packetBytes):starttime nan
scalar SingleCell.ue[4].ipv4.arp arpReplySent:vector(packetBytes):endtime nan
scalar SingleCell.ue[4].udp packetSent:vector(packetBytes):count 0
scalar SingleCell.ue[4].udp packetSent:vector(packetBytes):sum 0
scalar SingleCell.ue[4].udp packetSent:vector(packetBytes):sumweights 0
scalar SingleCell.ue[4].udp packetSent:vector(packetBytes):mean -nan
scalar SingleCell.ue[4].udp packetSent:vector(packetBytes):stddev nan
scalar SingleCell.ue[4].udp packetSent:vector(packetBytes):min inf
scalar SingleCell.ue[4].udp packetSent:vector(packetBytes):max -inf
scalar SingleCell.ue[4].udp packetSent:vector(packetBytes):starttime nan
scalar SingleCell.ue[4].udp packetSent:vector(packetBytes):endtime nan
scalar SingleCell.ue[4].udp packetReceived:vector(packetBytes):count 583
scalar SingleCell.ue[4].udp packetReceived:vector(packetBytes):sum 27984
scalar SingleCell.ue[4].udp packetReceived:vector(packetBytes):sumweights 583
scalar SingleCell.ue[4].udp packetReceived:vector(packetBytes):mean 48
scalar SingleCell.ue[4].udp packetReceived:vector(packetBytes):stddev 0
scalar SingleCell.ue[4].udp packetReceived:vector(packetBytes):min 48
scalar SingleCell.ue[4].udp packetReceived:vector(packetBytes):max 48
scalar SingleCell.ue[4].udp packetReceived:vector(packetBytes):starttime 0.014999999999999999
scalar SingleCell.ue[4].udp packetReceived:vector(packetBytes):endtime 19.962
scalar SingleCell.ue[4].udp passedUpPk:vector(count):count 584
scalar SingleCell.ue[4].udp passedUpPk:vector(count):sum 170236
scalar SingleCell.ue[4].udp passedUpPk:vector(count):sumweights 584
scalar SingleCell.ue[4].udp passedUpPk:vector(count):mean 291.5
scalar SingleCell.ue[4].udp passedUpPk:vector(count):stddev 168.7305544351704
scalar SingleCell.ue[4].udp passedUpPk:vector(count):min 0
scalar SingleCell.ue[4].udp passedUpPk:vector(count):max 583
scalar SingleCell.ue[4].udp passedUpPk:vector(count):starttime 0
scalar SingleCell.ue[4].udp passedUpPk:vector(count):endtime 19.962
scalar SingleCell.ue[4].udp droppedPkWrongPort:vector(count):count 1
scalar SingleCell.ue[4].udp droppedPkWrongPort:vector(count):sum 0
scalar SingleCell.ue[4].udp droppedPkWrongPort:vector(count):sumweights 1
scalar SingleCell.ue[4].udp droppedPkWrongPort:vector(count):mean 0
scalar SingleCell.ue[4].udp droppedPkWrongPort:vector(count):stddev nan
scalar SingleCell.ue[4].udp droppedPkWrongPort:vector(count):min 0
scalar SingleCell.ue[4].udp droppedPkWrongPort:vector(count):max 0
scalar SingleCell.ue[4].udp droppedPkWrongPort:vector(count):starttime 0
scalar SingleCell.ue[4].udp droppedPkWrongPort:vector(count):endtime 0
scalar SingleCell.ue[4].udp droppedPkBadChecksum:vector(count):count 1
scalar SingleCell.ue[4].udp droppedPkBadChecksum:vector(count):sum 0
scalar SingleCell.ue[4].udp droppedPkBadChecksum:vector(count):sumweights 1
scalar SingleCell.ue[4].udp droppedPkBadChecksum:vector(count):mean 0
scalar SingleCell.ue[4].udp droppedPkBadChecksum:vector(count):stddev nan
scalar SingleCell.ue[4].udp droppedPkBadChecksum:vector(count):min 0
scalar SingleCell.ue[4].udp droppedPkBadChecksum:vector(count):max 0
scalar SingleCell.ue[4].udp droppedPkBadChecksum:vector(count):starttime 0
scalar SingleCell.ue[4].udp droppedPkBadChecksum:vector(count):endtime 0
scalar SingleCell.ue[4].app[0] voipFrameDelay:vector:count 583
scalar SingleCell.ue[4].app[0] voipFrameDelay:vector:sum 2.7166539025580039
scalar SingleCell.ue[4].app[0] voipFrameDelay:vector:sumweights 583
scalar SingleCell.ue[4].app[0] voipFrameDelay:vector:mean 0.0046597837093619275
scalar SingleCell.ue[4].app[0] voipFrameDelay:vector:stddev 0.00030869230057292951
scalar SingleCell.ue[4].app[0] voipFrameDelay:vector:min 0.0040196485649999997
scalar SingleCell.ue[4].app[0] voipFrameDelay:vector:max 0.010954831853
scalar SingleCell.ue[4].app[0] voipFrameDelay:vector:starttime 0.014999999999999999
scalar SingleCell.ue[4].app[0] voipFrameDelay:vector:endtime 19.962
scalar SingleCell.ue[4].app[0] voipReceivedThroughput:vector:count 583
scalar SingleCell.ue[4].app[0] voipReceivedThroughput:vector:sum 681702.54593118175
scalar SingleCell.ue[4].app[0] voipReceivedThroughput:vector:sumweights 583
scalar SingleCell.ue[4].app[0] voipReceivedThroughput:vector:mean 1169.3011079437081
scalar SingleCell.ue[4].app[0] voipReceivedThroughput:vector:stddev 367.2433358117172
scalar SingleCell.ue[4].app[0] voipReceivedThroughput:vector:min 751.89309576837422
scalar SingleCell.ue[4].app[0] voipReceivedThroughput:vector:max 2666.666666666667
scalar SingleCell.ue[4].app[0] voipReceivedThroughput:vector:starttime 0.014999999999999999
scalar SingleCell.ue[4].app[0] voipReceivedThroughput:vector:endtime 19.962

