version 3
run MixedTraffic-0-20260709-21:29:35-650654
attr configname MixedTraffic
attr datetime 20260709-21:29:35
attr datetimef 20260709-212935
attr experiment MixedTraffic
attr inifile omnetpp.ini
attr iterationvars ""
attr iterationvarsd ""
attr iterationvarsf ""
attr measurement ""
attr network simu5g.simulations.lte.networks.MultiCell
attr processid 650654
attr repetition 0
attr replication #0
attr resultdir results
attr runnumber 0
attr seedset 0
config **.param-recording false
config image-path /home/andras/projects/Simu5G-fork/simu5g-fork/images
config output-scalar-file results/omnetpp.ini-MixedTraffic-#0.sca
config output-scalar-precision 17
config output-vector-file results/omnetpp.ini-MixedTraffic-#0.vec
config output-vector-precision 17
config record-eventlog false
config sim-time-limit 20s
config network simu5g.simulations.lte.networks.MultiCell
config description "4 Ues downloading a video from a server while 2 of them having a voip session (ue11 and ue22)."
config **.ue11.numApps 2
config **.ue22.numApps 2
config **.ue12.numApps 1
config **.ue21.numApps 1
config **.server.numApps 1
config **.ue1*.masterId 1
config **.ue2*.masterId 2
config **.ue1*.macCellId 1
config **.ue2*.macCellId 2
config **.ue11.app[1].packetSize 40B
config **.ue11.app[1].destAddress "\"ue22\""
config **.ue11.app[1].destPort 1000
config **.ue11.app[1].localPort 3088
config **.ue11.app[1].typename VoipSender
config **.ue11.app[1].startTime uniform(0s,0.02s)
config **.ue22.app[1].typename VoipReceiver
config **.ue22.app[1].localPort 1000
config **.ue*.app[0].typename UdpVideoStreamClient
config **.ue*.app[0].serverAddress "\"server\""
config **.ue*.app[0].localPort 9999
config **.ue*.app[0].serverPort 3088
config **.ue*.app[0].startTime 0s
config **.server.app[*].typename UdpVideoStreamServer
config **.server.app[*].videoSize 10MiB
config **.server.app[*].localPort 3088
config **.server.app[*].sendInterval 10ms
config **.server.app[*].packetLen 1000B
config sim-time-limit 20s
config output-scalar-file results/MixedTraffic/0.sca
config output-vector-file results/MixedTraffic/0.vec
config seed-set 0
config **.vector-recording false
config **.mobility.constraintAreaMinZ 0m
config **.mobility.constraintAreaMaxZ 0m
config **.mobility.initFromDisplayString true
config **.numBands 6
config **.ueTxPower 26dBm
config **.eNodeBTxPower 40dBm
config *.configurator.config "xmldoc(\"./demo.xml\")"

scalar MultiCell.server.lo[0].lo rcvdPkFromHl:count 0
scalar MultiCell.server.lo[0].lo rcvdPkFromHl:sum(packetBytes) 0
scalar MultiCell.server.lo[0].lo passedUpPk:count 0
scalar MultiCell.server.lo[0].lo passedUpPk:sum(packetBytes) 0
scalar MultiCell.server.lo[0] packetDropInterfaceDown:count 0
scalar MultiCell.server.lo[0] packetDropInterfaceDown:sum(packetBytes) 0
scalar MultiCell.server.lo[0] packetDropNoCarrier:count 0
scalar MultiCell.server.lo[0] packetDropNoCarrier:sum(packetBytes) 0
scalar MultiCell.server.ppp[0].queue queueLength:last 0
scalar MultiCell.server.ppp[0].queue queueLength:max 2
scalar MultiCell.server.ppp[0].queue queueLength:timeavg 0.00023376000000000272
scalar MultiCell.server.ppp[0].queue queueBitLength:last 0
scalar MultiCell.server.ppp[0].queue queueBitLength:max 16448
scalar MultiCell.server.ppp[0].queue queueBitLength:timeavg 1.9224422400000143
scalar MultiCell.server.ppp[0].queue outgoingPackets:count 7999
scalar MultiCell.server.ppp[0].queue outgoingPacketLengths:sum 65783776
scalar MultiCell.server.ppp[0].queue incomingPackets:count 7999
scalar MultiCell.server.ppp[0].queue incomingPacketLengths:sum 65783776
scalar MultiCell.server.ppp[0].queue droppedPacketsQueueOverflow:count 0
scalar MultiCell.server.ppp[0].queue droppedPacketLengthsQueueOverflow:sum 0
scalar MultiCell.server.ppp[0].ppp transmissionState:timeavg 0.00033115859999993907
scalar MultiCell.server.ppp[0].ppp rxPkOk:count 4
scalar MultiCell.server.ppp[0].ppp rxPkOk:sum(packetBytes) 144
scalar MultiCell.server.ppp[0].ppp txPk:count 7999
scalar MultiCell.server.ppp[0].ppp txPk:sum(packetBytes) 8278965
scalar MultiCell.server.ppp[0].ppp rcvdPkFromHl:count 7999
scalar MultiCell.server.ppp[0].ppp rcvdPkFromHl:sum(packetBytes) 8222972
scalar MultiCell.server.ppp[0].ppp passedUpPk:count 4
scalar MultiCell.server.ppp[0].ppp passedUpPk:sum(packetBytes) 116
scalar MultiCell.server.ppp[0].ppp packetDropIncorrectlyReceived:count 0
scalar MultiCell.server.ppp[0].ppp packetDropIncorrectlyReceived:sum(packetBytes) 0
scalar MultiCell.server.ppp[0].ppp packetDropInterfaceDown:count 0
scalar MultiCell.server.ppp[0].ppp packetDropInterfaceDown:sum(packetBytes) 0
scalar MultiCell.server.ppp[0] packetDropInterfaceDown:count 0
scalar MultiCell.server.ppp[0] packetDropInterfaceDown:sum(packetBytes) 0
scalar MultiCell.server.ppp[0] packetDropNoCarrier:count 0
scalar MultiCell.server.ppp[0] packetDropNoCarrier:sum(packetBytes) 0
scalar MultiCell.server.ipv4.ip packetDropAddressResolutionFailed:count 0
scalar MultiCell.server.ipv4.ip packetDropAddressResolutionFailed:sum(packetBytes) 0
scalar MultiCell.server.ipv4.ip packetDropHopLimitReached:count 0
scalar MultiCell.server.ipv4.ip packetDropHopLimitReached:sum(packetBytes) 0
scalar MultiCell.server.ipv4.ip packetDropForwardingDisabled:count 0
scalar MultiCell.server.ipv4.ip packetDropForwardingDisabled:sum(packetBytes) 0
scalar MultiCell.server.ipv4.ip packetDropNoInterfaceFound:count 0
scalar MultiCell.server.ipv4.ip packetDropNoInterfaceFound:sum(packetBytes) 0
scalar MultiCell.server.ipv4.ip packetDropNoRouteFound:count 0
scalar MultiCell.server.ipv4.ip packetDropNoRouteFound:sum(packetBytes) 0
scalar MultiCell.server.ipv4.ip packetDropUndefined:count 0
scalar MultiCell.server.ipv4.ip packetDropUndefined:sum(packetBytes) 0
scalar MultiCell.server.ipv4.arp arpResolutionFailed:count 0
scalar MultiCell.server.ipv4.arp arpResolutionCompleted:count 0
scalar MultiCell.server.ipv4.arp arpResolutionInitiated:count 0
scalar MultiCell.server.ipv4.arp arpReplySent:count 0
scalar MultiCell.server.ipv4.arp arpReplySent:sum(packetBytes) 0
scalar MultiCell.server.ipv4.arp arpRequestSent:count 0
scalar MultiCell.server.ipv4.arp arpRequestSent:sum(packetBytes) 0
scalar MultiCell.server.udp packetReceived:count 4
scalar MultiCell.server.udp packetReceived:sum(packetBytes) 36
scalar MultiCell.server.udp packetSent:count 7999
scalar MultiCell.server.udp packetSent:sum(packetBytes) 8062992
scalar MultiCell.server.udp passedUpPk:count 4
scalar MultiCell.server.udp droppedPkWrongPort:count 0
scalar MultiCell.server.udp droppedPkBadChecksum:count 0
scalar MultiCell.server.app[0] packetSent:count 7999
scalar MultiCell.server.app[0] packetSent:sum(packetBytes) 7999000
scalar MultiCell.server.app[0] reqStreamBytes:count 4
scalar MultiCell.server.app[0] reqStreamBytes:sum 41943040
scalar MultiCell.pgw.lo[0].lo rcvdPkFromHl:count 0
scalar MultiCell.pgw.lo[0].lo rcvdPkFromHl:sum(packetBytes) 0
scalar MultiCell.pgw.lo[0].lo passedUpPk:count 0
scalar MultiCell.pgw.lo[0].lo passedUpPk:sum(packetBytes) 0
scalar MultiCell.pgw.lo[0] packetDropInterfaceDown:count 0
scalar MultiCell.pgw.lo[0] packetDropInterfaceDown:sum(packetBytes) 0
scalar MultiCell.pgw.lo[0] packetDropNoCarrier:count 0
scalar MultiCell.pgw.lo[0] packetDropNoCarrier:sum(packetBytes) 0
scalar MultiCell.pgw.ppp[0].queue queueLength:last 0
scalar MultiCell.pgw.ppp[0].queue queueLength:max 0
scalar MultiCell.pgw.ppp[0].queue queueLength:timeavg 0
scalar MultiCell.pgw.ppp[0].queue queueBitLength:last 0
scalar MultiCell.pgw.ppp[0].queue queueBitLength:max 0
scalar MultiCell.pgw.ppp[0].queue queueBitLength:timeavg 0
scalar MultiCell.pgw.ppp[0].queue outgoingPackets:count 3999
scalar MultiCell.pgw.ppp[0].queue outgoingPacketLengths:sum 34039488
scalar MultiCell.pgw.ppp[0].queue incomingPackets:count 3999
scalar MultiCell.pgw.ppp[0].queue incomingPacketLengths:sum 34039488
scalar MultiCell.pgw.ppp[0].queue droppedPacketsQueueOverflow:count 0
scalar MultiCell.pgw.ppp[0].queue droppedPacketLengthsQueueOverflow:sum 0
scalar MultiCell.pgw.ppp[0].ppp transmissionState:timeavg 0.00017131715999999344
scalar MultiCell.pgw.ppp[0].ppp rxPkOk:count 813
scalar MultiCell.pgw.ppp[0].ppp rxPkOk:sum(packetBytes) 90165
scalar MultiCell.pgw.ppp[0].ppp txPk:count 3999
scalar MultiCell.pgw.ppp[0].ppp txPk:sum(packetBytes) 4282929
scalar MultiCell.pgw.ppp[0].ppp rcvdPkFromHl:count 3999
scalar MultiCell.pgw.ppp[0].ppp rcvdPkFromHl:sum(packetBytes) 4254936
scalar MultiCell.pgw.ppp[0].ppp passedUpPk:count 813
scalar MultiCell.pgw.ppp[0].ppp passedUpPk:sum(packetBytes) 84474
scalar MultiCell.pgw.ppp[0].ppp packetDropIncorrectlyReceived:count 0
scalar MultiCell.pgw.ppp[0].ppp packetDropIncorrectlyReceived:sum(packetBytes) 0
scalar MultiCell.pgw.ppp[0].ppp packetDropInterfaceDown:count 0
scalar MultiCell.pgw.ppp[0].ppp packetDropInterfaceDown:sum(packetBytes) 0
scalar MultiCell.pgw.ppp[0] packetDropInterfaceDown:count 0
scalar MultiCell.pgw.ppp[0] packetDropInterfaceDown:sum(packetBytes) 0
scalar MultiCell.pgw.ppp[0] packetDropNoCarrier:count 0
scalar MultiCell.pgw.ppp[0] packetDropNoCarrier:sum(packetBytes) 0
scalar MultiCell.pgw.ppp[1].queue queueLength:last 0
scalar MultiCell.pgw.ppp[1].queue queueLength:max 1
scalar MultiCell.pgw.ppp[1].queue queueLength:timeavg 2.8800000000000732e-06
scalar MultiCell.pgw.ppp[1].queue queueBitLength:last 0
scalar MultiCell.pgw.ppp[1].queue queueBitLength:max 8512
scalar MultiCell.pgw.ppp[1].queue queueBitLength:timeavg 0.024514559999999696
scalar MultiCell.pgw.ppp[1].queue outgoingPackets:count 4811
scalar MultiCell.pgw.ppp[1].queue outgoingPacketLengths:sum 34722752
scalar MultiCell.pgw.ppp[1].queue incomingPackets:count 4811
scalar MultiCell.pgw.ppp[1].queue incomingPacketLengths:sum 34722752
scalar MultiCell.pgw.ppp[1].queue droppedPacketsQueueOverflow:count 0
scalar MultiCell.pgw.ppp[1].queue droppedPacketLengthsQueueOverflow:sum 0
scalar MultiCell.pgw.ppp[1].ppp transmissionState:timeavg 0.00017496083999999111
scalar MultiCell.pgw.ppp[1].ppp rxPkOk:count 2
scalar MultiCell.pgw.ppp[1].ppp rxPkOk:sum(packetBytes) 144
scalar MultiCell.pgw.ppp[1].ppp txPk:count 4811
scalar MultiCell.pgw.ppp[1].ppp txPk:sum(packetBytes) 4374021
scalar MultiCell.pgw.ppp[1].ppp rcvdPkFromHl:count 4811
scalar MultiCell.pgw.ppp[1].ppp rcvdPkFromHl:sum(packetBytes) 4340344
scalar MultiCell.pgw.ppp[1].ppp passedUpPk:count 2
scalar MultiCell.pgw.ppp[1].ppp passedUpPk:sum(packetBytes) 130
scalar MultiCell.pgw.ppp[1].ppp packetDropIncorrectlyReceived:count 0
scalar MultiCell.pgw.ppp[1].ppp packetDropIncorrectlyReceived:sum(packetBytes) 0
scalar MultiCell.pgw.ppp[1].ppp packetDropInterfaceDown:count 0
scalar MultiCell.pgw.ppp[1].ppp packetDropInterfaceDown:sum(packetBytes) 0
scalar MultiCell.pgw.ppp[1] packetDropInterfaceDown:count 0
scalar MultiCell.pgw.ppp[1] packetDropInterfaceDown:sum(packetBytes) 0
scalar MultiCell.pgw.ppp[1] packetDropNoCarrier:count 0
scalar MultiCell.pgw.ppp[1] packetDropNoCarrier:sum(packetBytes) 0
scalar MultiCell.pgw.ipv4.ip packetDropAddressResolutionFailed:count 0
scalar MultiCell.pgw.ipv4.ip packetDropAddressResolutionFailed:sum(packetBytes) 0
scalar MultiCell.pgw.ipv4.ip packetDropHopLimitReached:count 0
scalar MultiCell.pgw.ipv4.ip packetDropHopLimitReached:sum(packetBytes) 0
scalar MultiCell.pgw.ipv4.ip packetDropForwardingDisabled:count 0
scalar MultiCell.pgw.ipv4.ip packetDropForwardingDisabled:sum(packetBytes) 0
scalar MultiCell.pgw.ipv4.ip packetDropNoInterfaceFound:count 0
scalar MultiCell.pgw.ipv4.ip packetDropNoInterfaceFound:sum(packetBytes) 0
scalar MultiCell.pgw.ipv4.ip packetDropNoRouteFound:count 0
scalar MultiCell.pgw.ipv4.ip packetDropNoRouteFound:sum(packetBytes) 0
scalar MultiCell.pgw.ipv4.ip packetDropUndefined:count 0
scalar MultiCell.pgw.ipv4.ip packetDropUndefined:sum(packetBytes) 0
scalar MultiCell.pgw.ipv4.arp arpResolutionFailed:count 0
scalar MultiCell.pgw.ipv4.arp arpResolutionCompleted:count 0
scalar MultiCell.pgw.ipv4.arp arpResolutionInitiated:count 0
scalar MultiCell.pgw.ipv4.arp arpReplySent:count 0
scalar MultiCell.pgw.ipv4.arp arpReplySent:sum(packetBytes) 0
scalar MultiCell.pgw.ipv4.arp arpRequestSent:count 0
scalar MultiCell.pgw.ipv4.arp arpRequestSent:sum(packetBytes) 0
scalar MultiCell.pgw.pppIf.queue queueLength:last 0
scalar MultiCell.pgw.pppIf.queue queueLength:max 0
scalar MultiCell.pgw.pppIf.queue queueLength:timeavg 0
scalar MultiCell.pgw.pppIf.queue queueBitLength:last 0
scalar MultiCell.pgw.pppIf.queue queueBitLength:max 0
scalar MultiCell.pgw.pppIf.queue queueBitLength:timeavg 0
scalar MultiCell.pgw.pppIf.queue outgoingPackets:count 4
scalar MultiCell.pgw.pppIf.queue outgoingPacketLengths:sum 928
scalar MultiCell.pgw.pppIf.queue incomingPackets:count 4
scalar MultiCell.pgw.pppIf.queue incomingPacketLengths:sum 928
scalar MultiCell.pgw.pppIf.queue droppedPacketsQueueOverflow:count 0
scalar MultiCell.pgw.pppIf.queue droppedPacketLengthsQueueOverflow:sum 0
scalar MultiCell.pgw.pppIf.ppp transmissionState:timeavg 5.76e-09
scalar MultiCell.pgw.pppIf.ppp rxPkOk:count 7999
scalar MultiCell.pgw.pppIf.ppp rxPkOk:sum(packetBytes) 8278965
scalar MultiCell.pgw.pppIf.ppp txPk:count 4
scalar MultiCell.pgw.pppIf.ppp txPk:sum(packetBytes) 144
scalar MultiCell.pgw.pppIf.ppp rcvdPkFromHl:count 4
scalar MultiCell.pgw.pppIf.ppp rcvdPkFromHl:sum(packetBytes) 116
scalar MultiCell.pgw.pppIf.ppp passedUpPk:count 7999
scalar MultiCell.pgw.pppIf.ppp passedUpPk:sum(packetBytes) 8222972
scalar MultiCell.pgw.pppIf.ppp packetDropIncorrectlyReceived:count 0
scalar MultiCell.pgw.pppIf.ppp packetDropIncorrectlyReceived:sum(packetBytes) 0
scalar MultiCell.pgw.pppIf.ppp packetDropInterfaceDown:count 0
scalar MultiCell.pgw.pppIf.ppp packetDropInterfaceDown:sum(packetBytes) 0
scalar MultiCell.pgw.pppIf packetDropInterfaceDown:count 0
scalar MultiCell.pgw.pppIf packetDropInterfaceDown:sum(packetBytes) 0
scalar MultiCell.pgw.pppIf packetDropNoCarrier:count 0
scalar MultiCell.pgw.pppIf packetDropNoCarrier:sum(packetBytes) 0
scalar MultiCell.pgw.udp packetReceived:count 815
scalar MultiCell.pgw.udp packetReceived:sum(packetBytes) 68304
scalar MultiCell.pgw.udp packetSent:count 8810
scalar MultiCell.pgw.udp packetSent:sum(packetBytes) 8419080
scalar MultiCell.pgw.udp passedUpPk:count 815
scalar MultiCell.pgw.udp droppedPkWrongPort:count 0
scalar MultiCell.pgw.udp droppedPkBadChecksum:count 0
scalar MultiCell.router.lo[0].lo rcvdPkFromHl:count 0
scalar MultiCell.router.lo[0].lo rcvdPkFromHl:sum(packetBytes) 0
scalar MultiCell.router.lo[0].lo passedUpPk:count 0
scalar MultiCell.router.lo[0].lo passedUpPk:sum(packetBytes) 0
scalar MultiCell.router.lo[0] packetDropInterfaceDown:count 0
scalar MultiCell.router.lo[0] packetDropInterfaceDown:sum(packetBytes) 0
scalar MultiCell.router.lo[0] packetDropNoCarrier:count 0
scalar MultiCell.router.lo[0] packetDropNoCarrier:sum(packetBytes) 0
scalar MultiCell.router.ppp[0].queue queueLength:last 0
scalar MultiCell.router.ppp[0].queue queueLength:max 0
scalar MultiCell.router.ppp[0].queue queueLength:timeavg 0
scalar MultiCell.router.ppp[0].queue queueBitLength:last 0
scalar MultiCell.router.ppp[0].queue queueBitLength:max 0
scalar MultiCell.router.ppp[0].queue queueBitLength:timeavg 0
scalar MultiCell.router.ppp[0].queue outgoingPackets:count 4
scalar MultiCell.router.ppp[0].queue outgoingPacketLengths:sum 928
scalar MultiCell.router.ppp[0].queue incomingPackets:count 4
scalar MultiCell.router.ppp[0].queue incomingPacketLengths:sum 928
scalar MultiCell.router.ppp[0].queue droppedPacketsQueueOverflow:count 0
scalar MultiCell.router.ppp[0].queue droppedPacketLengthsQueueOverflow:sum 0
scalar MultiCell.router.ppp[0].ppp transmissionState:timeavg 5.76e-09
scalar MultiCell.router.ppp[0].ppp rxPkOk:count 7999
scalar MultiCell.router.ppp[0].ppp rxPkOk:sum(packetBytes) 8278965
scalar MultiCell.router.ppp[0].ppp txPk:count 4
scalar MultiCell.router.ppp[0].ppp txPk:sum(packetBytes) 144
scalar MultiCell.router.ppp[0].ppp rcvdPkFromHl:count 4
scalar MultiCell.router.ppp[0].ppp rcvdPkFromHl:sum(packetBytes) 116
scalar MultiCell.router.ppp[0].ppp passedUpPk:count 7999
scalar MultiCell.router.ppp[0].ppp passedUpPk:sum(packetBytes) 8222972
scalar MultiCell.router.ppp[0].ppp packetDropIncorrectlyReceived:count 0
scalar MultiCell.router.ppp[0].ppp packetDropIncorrectlyReceived:sum(packetBytes) 0
scalar MultiCell.router.ppp[0].ppp packetDropInterfaceDown:count 0
scalar MultiCell.router.ppp[0].ppp packetDropInterfaceDown:sum(packetBytes) 0
scalar MultiCell.router.ppp[0] packetDropInterfaceDown:count 0
scalar MultiCell.router.ppp[0] packetDropInterfaceDown:sum(packetBytes) 0
scalar MultiCell.router.ppp[0] packetDropNoCarrier:count 0
scalar MultiCell.router.ppp[0] packetDropNoCarrier:sum(packetBytes) 0
scalar MultiCell.router.ppp[1].queue queueLength:last 0
scalar MultiCell.router.ppp[1].queue queueLength:max 0
scalar MultiCell.router.ppp[1].queue queueLength:timeavg 0
scalar MultiCell.router.ppp[1].queue queueBitLength:last 0
scalar MultiCell.router.ppp[1].queue queueBitLength:max 0
scalar MultiCell.router.ppp[1].queue queueBitLength:timeavg 0
scalar MultiCell.router.ppp[1].queue outgoingPackets:count 7999
scalar MultiCell.router.ppp[1].queue outgoingPacketLengths:sum 65783776
scalar MultiCell.router.ppp[1].queue incomingPackets:count 7999
scalar MultiCell.router.ppp[1].queue incomingPacketLengths:sum 65783776
scalar MultiCell.router.ppp[1].queue droppedPacketsQueueOverflow:count 0
scalar MultiCell.router.ppp[1].queue droppedPacketLengthsQueueOverflow:sum 0
scalar MultiCell.router.ppp[1].ppp transmissionState:timeavg 0.00033115859999993907
scalar MultiCell.router.ppp[1].ppp rxPkOk:count 4
scalar MultiCell.router.ppp[1].ppp rxPkOk:sum(packetBytes) 144
scalar MultiCell.router.ppp[1].ppp txPk:count 7999
scalar MultiCell.router.ppp[1].ppp txPk:sum(packetBytes) 8278965
scalar MultiCell.router.ppp[1].ppp rcvdPkFromHl:count 7999
scalar MultiCell.router.ppp[1].ppp rcvdPkFromHl:sum(packetBytes) 8222972
scalar MultiCell.router.ppp[1].ppp passedUpPk:count 4
scalar MultiCell.router.ppp[1].ppp passedUpPk:sum(packetBytes) 116
scalar MultiCell.router.ppp[1].ppp packetDropIncorrectlyReceived:count 0
scalar MultiCell.router.ppp[1].ppp packetDropIncorrectlyReceived:sum(packetBytes) 0
scalar MultiCell.router.ppp[1].ppp packetDropInterfaceDown:count 0
scalar MultiCell.router.ppp[1].ppp packetDropInterfaceDown:sum(packetBytes) 0
scalar MultiCell.router.ppp[1] packetDropInterfaceDown:count 0
scalar MultiCell.router.ppp[1] packetDropInterfaceDown:sum(packetBytes) 0
scalar MultiCell.router.ppp[1] packetDropNoCarrier:count 0
scalar MultiCell.router.ppp[1] packetDropNoCarrier:sum(packetBytes) 0
scalar MultiCell.router.ipv4.ip packetDropAddressResolutionFailed:count 0
scalar MultiCell.router.ipv4.ip packetDropAddressResolutionFailed:sum(packetBytes) 0
scalar MultiCell.router.ipv4.ip packetDropHopLimitReached:count 0
scalar MultiCell.router.ipv4.ip packetDropHopLimitReached:sum(packetBytes) 0
scalar MultiCell.router.ipv4.ip packetDropForwardingDisabled:count 0
scalar MultiCell.router.ipv4.ip packetDropForwardingDisabled:sum(packetBytes) 0
scalar MultiCell.router.ipv4.ip packetDropNoInterfaceFound:count 0
scalar MultiCell.router.ipv4.ip packetDropNoInterfaceFound:sum(packetBytes) 0
scalar MultiCell.router.ipv4.ip packetDropNoRouteFound:count 0
scalar MultiCell.router.ipv4.ip packetDropNoRouteFound:sum(packetBytes) 0
scalar MultiCell.router.ipv4.ip packetDropUndefined:count 0
scalar MultiCell.router.ipv4.ip packetDropUndefined:sum(packetBytes) 0
scalar MultiCell.router.ipv4.arp arpResolutionFailed:count 0
scalar MultiCell.router.ipv4.arp arpResolutionCompleted:count 0
scalar MultiCell.router.ipv4.arp arpResolutionInitiated:count 0
scalar MultiCell.router.ipv4.arp arpReplySent:count 0
scalar MultiCell.router.ipv4.arp arpReplySent:sum(packetBytes) 0
scalar MultiCell.router.ipv4.arp arpRequestSent:count 0
scalar MultiCell.router.ipv4.arp arpRequestSent:sum(packetBytes) 0
scalar MultiCell.eNodeB1.cellularNic.pdcp sentPacketToLowerLayer:count 3999
scalar MultiCell.eNodeB1.cellularNic.pdcp sentPacketToLowerLayer:sum(packetBytes) 4114971
scalar MultiCell.eNodeB1.cellularNic.pdcp sentPacketToUpperLayer:count 813
scalar MultiCell.eNodeB1.cellularNic.pdcp sentPacketToUpperLayer:sum(packetBytes) 55206
scalar MultiCell.eNodeB1.cellularNic.pdcp receivedPacketFromLowerLayer:count 813
scalar MultiCell.eNodeB1.cellularNic.pdcp receivedPacketFromLowerLayer:sum(packetBytes) 56019
scalar MultiCell.eNodeB1.cellularNic.pdcp receivedPacketFromUpperLayer:count 3999
scalar MultiCell.eNodeB1.cellularNic.pdcp receivedPacketFromUpperLayer:sum(packetBytes) 4110972
scalar MultiCell.eNodeB1.cellularNic.rlc.tm rlcPacketLossUl:mean -nan
scalar MultiCell.eNodeB1.cellularNic.rlc.tm rlcPacketLossUl:sum 0
scalar MultiCell.eNodeB1.cellularNic.rlc.tm rlcPacketLossDl:mean -nan
scalar MultiCell.eNodeB1.cellularNic.rlc.tm rlcPacketLossDl:sum 0
scalar MultiCell.eNodeB1.cellularNic.rlc.tm sentPacketToLowerLayer:count 0
scalar MultiCell.eNodeB1.cellularNic.rlc.tm sentPacketToLowerLayer:sum(packetBytes) 0
scalar MultiCell.eNodeB1.cellularNic.rlc.tm sentPacketToUpperLayer:count 0
scalar MultiCell.eNodeB1.cellularNic.rlc.tm sentPacketToUpperLayer:sum(packetBytes) 0
scalar MultiCell.eNodeB1.cellularNic.rlc.tm receivedPacketFromLowerLayer:count 0
scalar MultiCell.eNodeB1.cellularNic.rlc.tm receivedPacketFromLowerLayer:sum(packetBytes) 0
scalar MultiCell.eNodeB1.cellularNic.rlc.tm receivedPacketFromUpperLayer:count 0
scalar MultiCell.eNodeB1.cellularNic.rlc.tm receivedPacketFromUpperLayer:sum(packetBytes) 0
scalar MultiCell.eNodeB1.cellularNic.rlc.um rlcPacketLossTotal:mean -nan
scalar MultiCell.eNodeB1.cellularNic.rlc.um rlcCellThroughputUl:mean 414480.35615244688
scalar MultiCell.eNodeB1.cellularNic.rlc.um rlcCellThroughputDl:mean 416186.93175155803
scalar MultiCell.eNodeB1.cellularNic.rlc.um rlcPduThroughputUl:mean -nan
scalar MultiCell.eNodeB1.cellularNic.rlc.um rlcPduThroughputDl:mean -nan
scalar MultiCell.eNodeB1.cellularNic.rlc.um rlcPduDelayUl:mean -nan
scalar MultiCell.eNodeB1.cellularNic.rlc.um rlcPduDelayDl:mean -nan
scalar MultiCell.eNodeB1.cellularNic.rlc.um rlcThroughputUl:mean -nan
scalar MultiCell.eNodeB1.cellularNic.rlc.um rlcThroughputDl:mean -nan
scalar MultiCell.eNodeB1.cellularNic.rlc.um rlcDelayUl:mean -nan
scalar MultiCell.eNodeB1.cellularNic.rlc.um rlcDelayDl:mean -nan
scalar MultiCell.eNodeB1.cellularNic.rlc.um rlcPduPacketLossUl:mean -nan
scalar MultiCell.eNodeB1.cellularNic.rlc.um rlcPduPacketLossDl:mean -nan
scalar MultiCell.eNodeB1.cellularNic.rlc.um rlcPacketLossUl:mean -nan
scalar MultiCell.eNodeB1.cellularNic.rlc.um rlcPacketLossUl:sum 0
scalar MultiCell.eNodeB1.cellularNic.rlc.um rlcPacketLossDl:mean -nan
scalar MultiCell.eNodeB1.cellularNic.rlc.um rlcPacketLossDl:sum 0
scalar MultiCell.eNodeB1.cellularNic.rlc.um rlcCellPacketLossUl:mean 0
scalar MultiCell.eNodeB1.cellularNic.rlc.um rlcCellPacketLossDl:mean 0
scalar MultiCell.eNodeB1.cellularNic.rlc.um sentPacketToLowerLayer:count 7997
scalar MultiCell.eNodeB1.cellularNic.rlc.um sentPacketToLowerLayer:sum(packetBytes) 4130466
scalar MultiCell.eNodeB1.cellularNic.rlc.um sentPacketToUpperLayer:count 813
scalar MultiCell.eNodeB1.cellularNic.rlc.um sentPacketToUpperLayer:sum(packetBytes) 56019
scalar MultiCell.eNodeB1.cellularNic.rlc.um receivedPacketFromLowerLayer:count 814
scalar MultiCell.eNodeB1.cellularNic.rlc.um receivedPacketFromLowerLayer:sum(packetBytes) 57647
scalar MultiCell.eNodeB1.cellularNic.rlc.um receivedPacketFromUpperLayer:count 3999
scalar MultiCell.eNodeB1.cellularNic.rlc.um receivedPacketFromUpperLayer:sum(packetBytes) 4114971
scalar MultiCell.eNodeB1.cellularNic.rlc.am rlcPacketLossTotal:mean -nan
scalar MultiCell.eNodeB1.cellularNic.rlc.am rlcCellThroughputUl:mean -nan
scalar MultiCell.eNodeB1.cellularNic.rlc.am rlcCellThroughputDl:mean -nan
scalar MultiCell.eNodeB1.cellularNic.rlc.am rlcPduThroughputUl:mean -nan
scalar MultiCell.eNodeB1.cellularNic.rlc.am rlcPduThroughputDl:mean -nan
scalar MultiCell.eNodeB1.cellularNic.rlc.am rlcPduDelayUl:mean -nan
scalar MultiCell.eNodeB1.cellularNic.rlc.am rlcPduDelayDl:mean -nan
scalar MultiCell.eNodeB1.cellularNic.rlc.am rlcThroughputUl:mean -nan
scalar MultiCell.eNodeB1.cellularNic.rlc.am rlcThroughputDl:mean -nan
scalar MultiCell.eNodeB1.cellularNic.rlc.am rlcDelayUl:mean -nan
scalar MultiCell.eNodeB1.cellularNic.rlc.am rlcDelayDl:mean -nan
scalar MultiCell.eNodeB1.cellularNic.rlc.am rlcPduPacketLossUl:mean -nan
scalar MultiCell.eNodeB1.cellularNic.rlc.am rlcPduPacketLossDl:mean -nan
scalar MultiCell.eNodeB1.cellularNic.rlc.am rlcPacketLossUl:mean -nan
scalar MultiCell.eNodeB1.cellularNic.rlc.am rlcPacketLossDl:mean -nan
scalar MultiCell.eNodeB1.cellularNic.rlc.am rlcCellPacketLossUl:mean -nan
scalar MultiCell.eNodeB1.cellularNic.rlc.am rlcCellPacketLossDl:mean -nan
scalar MultiCell.eNodeB1.cellularNic.mac avgServedBlocksUl:mean 0.040649999999999999
scalar MultiCell.eNodeB1.cellularNic.mac avgServedBlocksDl:mean 2.4371999999999998
scalar MultiCell.eNodeB1.cellularNic.mac harqTxAttemptsUl:mean -nan
scalar MultiCell.eNodeB1.cellularNic.mac harqTxAttemptsDl:mean -nan
scalar MultiCell.eNodeB1.cellularNic.mac harqErrorRate_4th_Ul:mean -nan
scalar MultiCell.eNodeB1.cellularNic.mac harqErrorRate_4th_Dl:mean -nan
scalar MultiCell.eNodeB1.cellularNic.mac harqErrorRate_3rd_Ul:mean -nan
scalar MultiCell.eNodeB1.cellularNic.mac harqErrorRate_3rd_Dl:mean -nan
scalar MultiCell.eNodeB1.cellularNic.mac harqErrorRate_2nd_Ul:mean -nan
scalar MultiCell.eNodeB1.cellularNic.mac harqErrorRate_2nd_Dl:mean -nan
scalar MultiCell.eNodeB1.cellularNic.mac harqErrorRate_1st_Ul:mean -nan
scalar MultiCell.eNodeB1.cellularNic.mac harqErrorRate_1st_Dl:mean -nan
scalar MultiCell.eNodeB1.cellularNic.mac harqErrorRateUl:mean -nan
scalar MultiCell.eNodeB1.cellularNic.mac harqErrorRateDl:mean -nan
scalar MultiCell.eNodeB1.cellularNic.mac macCellPacketLossUl:mean 0
scalar MultiCell.eNodeB1.cellularNic.mac macCellPacketLossDl:mean 0
scalar MultiCell.eNodeB1.cellularNic.mac macPacketLossUl:mean -nan
scalar MultiCell.eNodeB1.cellularNic.mac macPacketLossDl:mean -nan
scalar MultiCell.eNodeB1.cellularNic.mac macThroughputUl:mean -nan
scalar MultiCell.eNodeB1.cellularNic.mac macThroughputDl:mean -nan
scalar MultiCell.eNodeB1.cellularNic.mac macDelayUl:mean -nan
scalar MultiCell.eNodeB1.cellularNic.mac macDelayDl:mean -nan
scalar MultiCell.eNodeB1.cellularNic.mac macCellThroughputUl:mean 418209.29172624677
scalar MultiCell.eNodeB1.cellularNic.mac macCellThroughputDl:mean 419839.60184380016
scalar MultiCell.eNodeB1.cellularNic.mac sentPacketToLowerLayer:count 10562
scalar MultiCell.eNodeB1.cellularNic.mac sentPacketToLowerLayer:sum(packetBytes) 4214825
scalar MultiCell.eNodeB1.cellularNic.mac sentPacketToUpperLayer:count 8811
scalar MultiCell.eNodeB1.cellularNic.mac sentPacketToUpperLayer:sum(packetBytes) 65644
scalar MultiCell.eNodeB1.cellularNic.mac receivedPacketFromLowerLayer:count 16414
scalar MultiCell.eNodeB1.cellularNic.mac receivedPacketFromLowerLayer:sum(packetBytes) 74874
scalar MultiCell.eNodeB1.cellularNic.mac receivedPacketFromUpperLayer:count 11996
scalar MultiCell.eNodeB1.cellularNic.mac receivedPacketFromUpperLayer:sum(packetBytes) 8253435
scalar MultiCell.eNodeB1.cellularNic.mac macBufferOverFlowD2D:mean -nan
scalar MultiCell.eNodeB1.cellularNic.mac macBufferOverFlowUl:mean -nan
scalar MultiCell.eNodeB1.cellularNic.mac macBufferOverFlowDl:mean -nan
scalar MultiCell.eNodeB1.cellularNic.channelModel[0] measuredSinrUl:mean -nan
scalar MultiCell.eNodeB1.cellularNic.channelModel[0] measuredSinrDl:mean -nan
scalar MultiCell.eNodeB1.cellularNic.channelModel[0] rcvdSinrD2D:mean -nan
scalar MultiCell.eNodeB1.cellularNic.channelModel[0] rcvdSinrUl:mean -nan
scalar MultiCell.eNodeB1.cellularNic.channelModel[0] rcvdSinrDl:mean -nan
scalar MultiCell.eNodeB1.cellularNic packetDropInterfaceDown:count 0
scalar MultiCell.eNodeB1.cellularNic packetDropInterfaceDown:sum(packetBytes) 0
scalar MultiCell.eNodeB1.cellularNic packetDropNoCarrier:count 0
scalar MultiCell.eNodeB1.cellularNic packetDropNoCarrier:sum(packetBytes) 0
scalar MultiCell.eNodeB1.pppIf.queue queueLength:last 0
scalar MultiCell.eNodeB1.pppIf.queue queueLength:max 1
scalar MultiCell.eNodeB1.pppIf.queue queueLength:timeavg 4.4400000000000004e-09
scalar MultiCell.eNodeB1.pppIf.queue queueBitLength:last 0
scalar MultiCell.eNodeB1.pppIf.queue queueBitLength:max 520
scalar MultiCell.eNodeB1.pppIf.queue queueBitLength:timeavg 2.3087999999999998e-06
scalar MultiCell.eNodeB1.pppIf.queue outgoingPackets:count 813
scalar MultiCell.eNodeB1.pppIf.queue outgoingPacketLengths:sum 675792
scalar MultiCell.eNodeB1.pppIf.queue incomingPackets:count 813
scalar MultiCell.eNodeB1.pppIf.queue incomingPacketLengths:sum 675792
scalar MultiCell.eNodeB1.pppIf.queue droppedPacketsQueueOverflow:count 0
scalar MultiCell.eNodeB1.pppIf.queue droppedPacketLengthsQueueOverflow:sum 0
scalar MultiCell.eNodeB1.pppIf.ppp transmissionState:timeavg 3.606600000000013e-06
scalar MultiCell.eNodeB1.pppIf.ppp rxPkOk:count 3999
scalar MultiCell.eNodeB1.pppIf.ppp rxPkOk:sum(packetBytes) 4282929
scalar MultiCell.eNodeB1.pppIf.ppp txPk:count 813
scalar MultiCell.eNodeB1.pppIf.ppp txPk:sum(packetBytes) 90165
scalar MultiCell.eNodeB1.pppIf.ppp rcvdPkFromHl:count 813
scalar MultiCell.eNodeB1.pppIf.ppp rcvdPkFromHl:sum(packetBytes) 84474
scalar MultiCell.eNodeB1.pppIf.ppp passedUpPk:count 3999
scalar MultiCell.eNodeB1.pppIf.ppp passedUpPk:sum(packetBytes) 4254936
scalar MultiCell.eNodeB1.pppIf.ppp packetDropIncorrectlyReceived:count 0
scalar MultiCell.eNodeB1.pppIf.ppp packetDropIncorrectlyReceived:sum(packetBytes) 0
scalar MultiCell.eNodeB1.pppIf.ppp packetDropInterfaceDown:count 0
scalar MultiCell.eNodeB1.pppIf.ppp packetDropInterfaceDown:sum(packetBytes) 0
scalar MultiCell.eNodeB1.pppIf packetDropInterfaceDown:count 0
scalar MultiCell.eNodeB1.pppIf packetDropInterfaceDown:sum(packetBytes) 0
scalar MultiCell.eNodeB1.pppIf packetDropNoCarrier:count 0
scalar MultiCell.eNodeB1.pppIf packetDropNoCarrier:sum(packetBytes) 0
scalar MultiCell.eNodeB1.x2ppp[0].queue queueLength:last 0
scalar MultiCell.eNodeB1.x2ppp[0].queue queueLength:max 0
scalar MultiCell.eNodeB1.x2ppp[0].queue queueLength:timeavg 0
scalar MultiCell.eNodeB1.x2ppp[0].queue queueBitLength:last 0
scalar MultiCell.eNodeB1.x2ppp[0].queue queueBitLength:max 0
scalar MultiCell.eNodeB1.x2ppp[0].queue queueBitLength:timeavg 0
scalar MultiCell.eNodeB1.x2ppp[0].queue outgoingPackets:count 0
scalar MultiCell.eNodeB1.x2ppp[0].queue outgoingPacketLengths:sum 0
scalar MultiCell.eNodeB1.x2ppp[0].queue incomingPackets:count 0
scalar MultiCell.eNodeB1.x2ppp[0].queue incomingPacketLengths:sum 0
scalar MultiCell.eNodeB1.x2ppp[0].queue droppedPacketsQueueOverflow:count 0
scalar MultiCell.eNodeB1.x2ppp[0].queue droppedPacketLengthsQueueOverflow:sum 0
scalar MultiCell.eNodeB1.x2ppp[0].ppp transmissionState:timeavg 0
scalar MultiCell.eNodeB1.x2ppp[0].ppp rxPkOk:count 0
scalar MultiCell.eNodeB1.x2ppp[0].ppp rxPkOk:sum(packetBytes) 0
scalar MultiCell.eNodeB1.x2ppp[0].ppp txPk:count 0
scalar MultiCell.eNodeB1.x2ppp[0].ppp txPk:sum(packetBytes) 0
scalar MultiCell.eNodeB1.x2ppp[0].ppp rcvdPkFromHl:count 0
scalar MultiCell.eNodeB1.x2ppp[0].ppp rcvdPkFromHl:sum(packetBytes) 0
scalar MultiCell.eNodeB1.x2ppp[0].ppp passedUpPk:count 0
scalar MultiCell.eNodeB1.x2ppp[0].ppp passedUpPk:sum(packetBytes) 0
scalar MultiCell.eNodeB1.x2ppp[0].ppp packetDropIncorrectlyReceived:count 0
scalar MultiCell.eNodeB1.x2ppp[0].ppp packetDropIncorrectlyReceived:sum(packetBytes) 0
scalar MultiCell.eNodeB1.x2ppp[0].ppp packetDropInterfaceDown:count 0
scalar MultiCell.eNodeB1.x2ppp[0].ppp packetDropInterfaceDown:sum(packetBytes) 0
scalar MultiCell.eNodeB1.x2ppp[0] packetDropInterfaceDown:count 0
scalar MultiCell.eNodeB1.x2ppp[0] packetDropInterfaceDown:sum(packetBytes) 0
scalar MultiCell.eNodeB1.x2ppp[0] packetDropNoCarrier:count 0
scalar MultiCell.eNodeB1.x2ppp[0] packetDropNoCarrier:sum(packetBytes) 0
scalar MultiCell.eNodeB1.pppMEHostIf.queue queueLength:last 0
scalar MultiCell.eNodeB1.pppMEHostIf.queue queueLength:max 0
scalar MultiCell.eNodeB1.pppMEHostIf.queue queueLength:timeavg 0
scalar MultiCell.eNodeB1.pppMEHostIf.queue queueBitLength:last 0
scalar MultiCell.eNodeB1.pppMEHostIf.queue queueBitLength:max 0
scalar MultiCell.eNodeB1.pppMEHostIf.queue queueBitLength:timeavg 0
scalar MultiCell.eNodeB1.pppMEHostIf.queue outgoingPackets:count 0
scalar MultiCell.eNodeB1.pppMEHostIf.queue outgoingPacketLengths:sum 0
scalar MultiCell.eNodeB1.pppMEHostIf.queue incomingPackets:count 0
scalar MultiCell.eNodeB1.pppMEHostIf.queue incomingPacketLengths:sum 0
scalar MultiCell.eNodeB1.pppMEHostIf.queue droppedPacketsQueueOverflow:count 0
scalar MultiCell.eNodeB1.pppMEHostIf.queue droppedPacketLengthsQueueOverflow:sum 0
scalar MultiCell.eNodeB1.pppMEHostIf.ppp transmissionState:timeavg 0
scalar MultiCell.eNodeB1.pppMEHostIf.ppp rxPkOk:count 0
scalar MultiCell.eNodeB1.pppMEHostIf.ppp rxPkOk:sum(packetBytes) 0
scalar MultiCell.eNodeB1.pppMEHostIf.ppp txPk:count 0
scalar MultiCell.eNodeB1.pppMEHostIf.ppp txPk:sum(packetBytes) 0
scalar MultiCell.eNodeB1.pppMEHostIf.ppp rcvdPkFromHl:count 0
scalar MultiCell.eNodeB1.pppMEHostIf.ppp rcvdPkFromHl:sum(packetBytes) 0
scalar MultiCell.eNodeB1.pppMEHostIf.ppp passedUpPk:count 0
scalar MultiCell.eNodeB1.pppMEHostIf.ppp passedUpPk:sum(packetBytes) 0
scalar MultiCell.eNodeB1.pppMEHostIf.ppp packetDropIncorrectlyReceived:count 0
scalar MultiCell.eNodeB1.pppMEHostIf.ppp packetDropIncorrectlyReceived:sum(packetBytes) 0
scalar MultiCell.eNodeB1.pppMEHostIf.ppp packetDropInterfaceDown:count 0
scalar MultiCell.eNodeB1.pppMEHostIf.ppp packetDropInterfaceDown:sum(packetBytes) 0
scalar MultiCell.eNodeB1.pppMEHostIf packetDropInterfaceDown:count 0
scalar MultiCell.eNodeB1.pppMEHostIf packetDropInterfaceDown:sum(packetBytes) 0
scalar MultiCell.eNodeB1.pppMEHostIf packetDropNoCarrier:count 0
scalar MultiCell.eNodeB1.pppMEHostIf packetDropNoCarrier:sum(packetBytes) 0
scalar MultiCell.eNodeB1.ipv4.ip packetDropAddressResolutionFailed:count 0
scalar MultiCell.eNodeB1.ipv4.ip packetDropAddressResolutionFailed:sum(packetBytes) 0
scalar MultiCell.eNodeB1.ipv4.ip packetDropHopLimitReached:count 0
scalar MultiCell.eNodeB1.ipv4.ip packetDropHopLimitReached:sum(packetBytes) 0
scalar MultiCell.eNodeB1.ipv4.ip packetDropForwardingDisabled:count 0
scalar MultiCell.eNodeB1.ipv4.ip packetDropForwardingDisabled:sum(packetBytes) 0
scalar MultiCell.eNodeB1.ipv4.ip packetDropNoInterfaceFound:count 0
scalar MultiCell.eNodeB1.ipv4.ip packetDropNoInterfaceFound:sum(packetBytes) 0
scalar MultiCell.eNodeB1.ipv4.ip packetDropNoRouteFound:count 0
scalar MultiCell.eNodeB1.ipv4.ip packetDropNoRouteFound:sum(packetBytes) 0
scalar MultiCell.eNodeB1.ipv4.ip packetDropUndefined:count 0
scalar MultiCell.eNodeB1.ipv4.ip packetDropUndefined:sum(packetBytes) 0
scalar MultiCell.eNodeB1.ipv4.arp arpResolutionFailed:count 0
scalar MultiCell.eNodeB1.ipv4.arp arpResolutionCompleted:count 0
scalar MultiCell.eNodeB1.ipv4.arp arpResolutionInitiated:count 0
scalar MultiCell.eNodeB1.ipv4.arp arpReplySent:count 0
scalar MultiCell.eNodeB1.ipv4.arp arpReplySent:sum(packetBytes) 0
scalar MultiCell.eNodeB1.ipv4.arp arpRequestSent:count 0
scalar MultiCell.eNodeB1.ipv4.arp arpRequestSent:sum(packetBytes) 0
scalar MultiCell.eNodeB1.udp packetReceived:count 3999
scalar MultiCell.eNodeB1.udp packetReceived:sum(packetBytes) 4174956
scalar MultiCell.eNodeB1.udp packetSent:count 813
scalar MultiCell.eNodeB1.udp packetSent:sum(packetBytes) 68214
scalar MultiCell.eNodeB1.udp passedUpPk:count 3999
scalar MultiCell.eNodeB1.udp droppedPkWrongPort:count 0
scalar MultiCell.eNodeB1.udp droppedPkBadChecksum:count 0
scalar MultiCell.eNodeB2.cellularNic.pdcp sentPacketToLowerLayer:count 4811
scalar MultiCell.eNodeB2.cellularNic.pdcp sentPacketToLowerLayer:sum(packetBytes) 4171959
scalar MultiCell.eNodeB2.cellularNic.pdcp sentPacketToUpperLayer:count 2
scalar MultiCell.eNodeB2.cellularNic.pdcp sentPacketToUpperLayer:sum(packetBytes) 58
scalar MultiCell.eNodeB2.cellularNic.pdcp receivedPacketFromLowerLayer:count 2
scalar MultiCell.eNodeB2.cellularNic.pdcp receivedPacketFromLowerLayer:sum(packetBytes) 60
scalar MultiCell.eNodeB2.cellularNic.pdcp receivedPacketFromUpperLayer:count 4811
scalar MultiCell.eNodeB2.cellularNic.pdcp receivedPacketFromUpperLayer:sum(packetBytes) 4167148
scalar MultiCell.eNodeB2.cellularNic.rlc.tm rlcPacketLossUl:mean -nan
scalar MultiCell.eNodeB2.cellularNic.rlc.tm rlcPacketLossUl:sum 0
scalar MultiCell.eNodeB2.cellularNic.rlc.tm rlcPacketLossDl:mean -nan
scalar MultiCell.eNodeB2.cellularNic.rlc.tm rlcPacketLossDl:sum 0
scalar MultiCell.eNodeB2.cellularNic.rlc.tm sentPacketToLowerLayer:count 0
scalar MultiCell.eNodeB2.cellularNic.rlc.tm sentPacketToLowerLayer:sum(packetBytes) 0
scalar MultiCell.eNodeB2.cellularNic.rlc.tm sentPacketToUpperLayer:count 0
scalar MultiCell.eNodeB2.cellularNic.rlc.tm sentPacketToUpperLayer:sum(packetBytes) 0
scalar MultiCell.eNodeB2.cellularNic.rlc.tm receivedPacketFromLowerLayer:count 0
scalar MultiCell.eNodeB2.cellularNic.rlc.tm receivedPacketFromLowerLayer:sum(packetBytes) 0
scalar MultiCell.eNodeB2.cellularNic.rlc.tm receivedPacketFromUpperLayer:count 0
scalar MultiCell.eNodeB2.cellularNic.rlc.tm receivedPacketFromUpperLayer:sum(packetBytes) 0
scalar MultiCell.eNodeB2.cellularNic.rlc.um rlcPacketLossTotal:mean -nan
scalar MultiCell.eNodeB2.cellularNic.rlc.um rlcCellThroughputUl:mean 16000
scalar MultiCell.eNodeB2.cellularNic.rlc.um rlcCellThroughputDl:mean 416313.88027177344
scalar MultiCell.eNodeB2.cellularNic.rlc.um rlcPduThroughputUl:mean -nan
scalar MultiCell.eNodeB2.cellularNic.rlc.um rlcPduThroughputDl:mean -nan
scalar MultiCell.eNodeB2.cellularNic.rlc.um rlcPduDelayUl:mean -nan
scalar MultiCell.eNodeB2.cellularNic.rlc.um rlcPduDelayDl:mean -nan
scalar MultiCell.eNodeB2.cellularNic.rlc.um rlcThroughputUl:mean -nan
scalar MultiCell.eNodeB2.cellularNic.rlc.um rlcThroughputDl:mean -nan
scalar MultiCell.eNodeB2.cellularNic.rlc.um rlcDelayUl:mean -nan
scalar MultiCell.eNodeB2.cellularNic.rlc.um rlcDelayDl:mean -nan
scalar MultiCell.eNodeB2.cellularNic.rlc.um rlcPduPacketLossUl:mean -nan
scalar MultiCell.eNodeB2.cellularNic.rlc.um rlcPduPacketLossDl:mean -nan
scalar MultiCell.eNodeB2.cellularNic.rlc.um rlcPacketLossUl:mean -nan
scalar MultiCell.eNodeB2.cellularNic.rlc.um rlcPacketLossUl:sum 0
scalar MultiCell.eNodeB2.cellularNic.rlc.um rlcPacketLossDl:mean -nan
scalar MultiCell.eNodeB2.cellularNic.rlc.um rlcPacketLossDl:sum 0
scalar MultiCell.eNodeB2.cellularNic.rlc.um rlcCellPacketLossUl:mean 0
scalar MultiCell.eNodeB2.cellularNic.rlc.um rlcCellPacketLossDl:mean 0
scalar MultiCell.eNodeB2.cellularNic.rlc.um sentPacketToLowerLayer:count 9013
scalar MultiCell.eNodeB2.cellularNic.rlc.um sentPacketToLowerLayer:sum(packetBytes) 4188457
scalar MultiCell.eNodeB2.cellularNic.rlc.um sentPacketToUpperLayer:count 2
scalar MultiCell.eNodeB2.cellularNic.rlc.um sentPacketToUpperLayer:sum(packetBytes) 60
scalar MultiCell.eNodeB2.cellularNic.rlc.um receivedPacketFromLowerLayer:count 2
scalar MultiCell.eNodeB2.cellularNic.rlc.um receivedPacketFromLowerLayer:sum(packetBytes) 64
scalar MultiCell.eNodeB2.cellularNic.rlc.um receivedPacketFromUpperLayer:count 4811
scalar MultiCell.eNodeB2.cellularNic.rlc.um receivedPacketFromUpperLayer:sum(packetBytes) 4171959
scalar MultiCell.eNodeB2.cellularNic.rlc.am rlcPacketLossTotal:mean -nan
scalar MultiCell.eNodeB2.cellularNic.rlc.am rlcCellThroughputUl:mean -nan
scalar MultiCell.eNodeB2.cellularNic.rlc.am rlcCellThroughputDl:mean -nan
scalar MultiCell.eNodeB2.cellularNic.rlc.am rlcPduThroughputUl:mean -nan
scalar MultiCell.eNodeB2.cellularNic.rlc.am rlcPduThroughputDl:mean -nan
scalar MultiCell.eNodeB2.cellularNic.rlc.am rlcPduDelayUl:mean -nan
scalar MultiCell.eNodeB2.cellularNic.rlc.am rlcPduDelayDl:mean -nan
scalar MultiCell.eNodeB2.cellularNic.rlc.am rlcThroughputUl:mean -nan
scalar MultiCell.eNodeB2.cellularNic.rlc.am rlcThroughputDl:mean -nan
scalar MultiCell.eNodeB2.cellularNic.rlc.am rlcDelayUl:mean -nan
scalar MultiCell.eNodeB2.cellularNic.rlc.am rlcDelayDl:mean -nan
scalar MultiCell.eNodeB2.cellularNic.rlc.am rlcPduPacketLossUl:mean -nan
scalar MultiCell.eNodeB2.cellularNic.rlc.am rlcPduPacketLossDl:mean -nan
scalar MultiCell.eNodeB2.cellularNic.rlc.am rlcPacketLossUl:mean -nan
scalar MultiCell.eNodeB2.cellularNic.rlc.am rlcPacketLossDl:mean -nan
scalar MultiCell.eNodeB2.cellularNic.rlc.am rlcCellPacketLossUl:mean -nan
scalar MultiCell.eNodeB2.cellularNic.rlc.am rlcCellPacketLossDl:mean -nan
scalar MultiCell.eNodeB2.cellularNic.mac avgServedBlocksUl:mean 0.0001
scalar MultiCell.eNodeB2.cellularNic.mac avgServedBlocksDl:mean 2.4396499999999999
scalar MultiCell.eNodeB2.cellularNic.mac harqTxAttemptsUl:mean -nan
scalar MultiCell.eNodeB2.cellularNic.mac harqTxAttemptsDl:mean -nan
scalar MultiCell.eNodeB2.cellularNic.mac harqErrorRate_4th_Ul:mean -nan
scalar MultiCell.eNodeB2.cellularNic.mac harqErrorRate_4th_Dl:mean -nan
scalar MultiCell.eNodeB2.cellularNic.mac harqErrorRate_3rd_Ul:mean -nan
scalar MultiCell.eNodeB2.cellularNic.mac harqErrorRate_3rd_Dl:mean -nan
scalar MultiCell.eNodeB2.cellularNic.mac harqErrorRate_2nd_Ul:mean -nan
scalar MultiCell.eNodeB2.cellularNic.mac harqErrorRate_2nd_Dl:mean -nan
scalar MultiCell.eNodeB2.cellularNic.mac harqErrorRate_1st_Ul:mean -nan
scalar MultiCell.eNodeB2.cellularNic.mac harqErrorRate_1st_Dl:mean -nan
scalar MultiCell.eNodeB2.cellularNic.mac harqErrorRateUl:mean -nan
scalar MultiCell.eNodeB2.cellularNic.mac harqErrorRateDl:mean -nan
scalar MultiCell.eNodeB2.cellularNic.mac macCellPacketLossUl:mean 0
scalar MultiCell.eNodeB2.cellularNic.mac macCellPacketLossDl:mean 0
scalar MultiCell.eNodeB2.cellularNic.mac macPacketLossUl:mean -nan
scalar MultiCell.eNodeB2.cellularNic.mac macPacketLossDl:mean -nan
scalar MultiCell.eNodeB2.cellularNic.mac macThroughputUl:mean -nan
scalar MultiCell.eNodeB2.cellularNic.mac macThroughputDl:mean -nan
scalar MultiCell.eNodeB2.cellularNic.mac macDelayUl:mean -nan
scalar MultiCell.eNodeB2.cellularNic.mac macDelayDl:mean -nan
scalar MultiCell.eNodeB2.cellularNic.mac macCellThroughputUl:mean 19333.333333333336
scalar MultiCell.eNodeB2.cellularNic.mac macCellThroughputDl:mean 419960.81629777339
scalar MultiCell.eNodeB2.cellularNic.mac sentPacketToLowerLayer:count 9019
scalar MultiCell.eNodeB2.cellularNic.mac sentPacketToLowerLayer:sum(packetBytes) 4206489
scalar MultiCell.eNodeB2.cellularNic.mac sentPacketToUpperLayer:count 9015
scalar MultiCell.eNodeB2.cellularNic.mac sentPacketToUpperLayer:sum(packetBytes) 9077
scalar MultiCell.eNodeB2.cellularNic.mac receivedPacketFromLowerLayer:count 15684
scalar MultiCell.eNodeB2.cellularNic.mac receivedPacketFromLowerLayer:sum(packetBytes) 15750
scalar MultiCell.eNodeB2.cellularNic.mac receivedPacketFromUpperLayer:count 13824
scalar MultiCell.eNodeB2.cellularNic.mac receivedPacketFromUpperLayer:sum(packetBytes) 8370038
scalar MultiCell.eNodeB2.cellularNic.mac macBufferOverFlowD2D:mean -nan
scalar MultiCell.eNodeB2.cellularNic.mac macBufferOverFlowUl:mean -nan
scalar MultiCell.eNodeB2.cellularNic.mac macBufferOverFlowDl:mean -nan
scalar MultiCell.eNodeB2.cellularNic.channelModel[0] measuredSinrUl:mean -nan
scalar MultiCell.eNodeB2.cellularNic.channelModel[0] measuredSinrDl:mean -nan
scalar MultiCell.eNodeB2.cellularNic.channelModel[0] rcvdSinrD2D:mean -nan
scalar MultiCell.eNodeB2.cellularNic.channelModel[0] rcvdSinrUl:mean -nan
scalar MultiCell.eNodeB2.cellularNic.channelModel[0] rcvdSinrDl:mean -nan
scalar MultiCell.eNodeB2.cellularNic packetDropInterfaceDown:count 0
scalar MultiCell.eNodeB2.cellularNic packetDropInterfaceDown:sum(packetBytes) 0
scalar MultiCell.eNodeB2.cellularNic packetDropNoCarrier:count 0
scalar MultiCell.eNodeB2.cellularNic packetDropNoCarrier:sum(packetBytes) 0
scalar MultiCell.eNodeB2.pppIf.queue queueLength:last 0
scalar MultiCell.eNodeB2.pppIf.queue queueLength:max 1
scalar MultiCell.eNodeB2.pppIf.queue queueLength:timeavg 2.88e-09
scalar MultiCell.eNodeB2.pppIf.queue queueBitLength:last 0
scalar MultiCell.eNodeB2.pppIf.queue queueBitLength:max 520
scalar MultiCell.eNodeB2.pppIf.queue queueBitLength:timeavg 1.4976000000000001e-06
scalar MultiCell.eNodeB2.pppIf.queue outgoingPackets:count 2
scalar MultiCell.eNodeB2.pppIf.queue outgoingPacketLengths:sum 1040
scalar MultiCell.eNodeB2.pppIf.queue incomingPackets:count 2
scalar MultiCell.eNodeB2.pppIf.queue incomingPacketLengths:sum 1040
scalar MultiCell.eNodeB2.pppIf.queue droppedPacketsQueueOverflow:count 0
scalar MultiCell.eNodeB2.pppIf.queue droppedPacketLengthsQueueOverflow:sum 0
scalar MultiCell.eNodeB2.pppIf.ppp transmissionState:timeavg 5.76e-09
scalar MultiCell.eNodeB2.pppIf.ppp rxPkOk:count 4811
scalar MultiCell.eNodeB2.pppIf.ppp rxPkOk:sum(packetBytes) 4374021
scalar MultiCell.eNodeB2.pppIf.ppp txPk:count 2
scalar MultiCell.eNodeB2.pppIf.ppp txPk:sum(packetBytes) 144
scalar MultiCell.eNodeB2.pppIf.ppp rcvdPkFromHl:count 2
scalar MultiCell.eNodeB2.pppIf.ppp rcvdPkFromHl:sum(packetBytes) 130
scalar MultiCell.eNodeB2.pppIf.ppp passedUpPk:count 4811
scalar MultiCell.eNodeB2.pppIf.ppp passedUpPk:sum(packetBytes) 4340344
scalar MultiCell.eNodeB2.pppIf.ppp packetDropIncorrectlyReceived:count 0
scalar MultiCell.eNodeB2.pppIf.ppp packetDropIncorrectlyReceived:sum(packetBytes) 0
scalar MultiCell.eNodeB2.pppIf.ppp packetDropInterfaceDown:count 0
scalar MultiCell.eNodeB2.pppIf.ppp packetDropInterfaceDown:sum(packetBytes) 0
scalar MultiCell.eNodeB2.pppIf packetDropInterfaceDown:count 0
scalar MultiCell.eNodeB2.pppIf packetDropInterfaceDown:sum(packetBytes) 0
scalar MultiCell.eNodeB2.pppIf packetDropNoCarrier:count 0
scalar MultiCell.eNodeB2.pppIf packetDropNoCarrier:sum(packetBytes) 0
scalar MultiCell.eNodeB2.x2ppp[0].queue queueLength:last 0
scalar MultiCell.eNodeB2.x2ppp[0].queue queueLength:max 0
scalar MultiCell.eNodeB2.x2ppp[0].queue queueLength:timeavg 0
scalar MultiCell.eNodeB2.x2ppp[0].queue queueBitLength:last 0
scalar MultiCell.eNodeB2.x2ppp[0].queue queueBitLength:max 0
scalar MultiCell.eNodeB2.x2ppp[0].queue queueBitLength:timeavg 0
scalar MultiCell.eNodeB2.x2ppp[0].queue outgoingPackets:count 0
scalar MultiCell.eNodeB2.x2ppp[0].queue outgoingPacketLengths:sum 0
scalar MultiCell.eNodeB2.x2ppp[0].queue incomingPackets:count 0
scalar MultiCell.eNodeB2.x2ppp[0].queue incomingPacketLengths:sum 0
scalar MultiCell.eNodeB2.x2ppp[0].queue droppedPacketsQueueOverflow:count 0
scalar MultiCell.eNodeB2.x2ppp[0].queue droppedPacketLengthsQueueOverflow:sum 0
scalar MultiCell.eNodeB2.x2ppp[0].ppp transmissionState:timeavg 0
scalar MultiCell.eNodeB2.x2ppp[0].ppp rxPkOk:count 0
scalar MultiCell.eNodeB2.x2ppp[0].ppp rxPkOk:sum(packetBytes) 0
scalar MultiCell.eNodeB2.x2ppp[0].ppp txPk:count 0
scalar MultiCell.eNodeB2.x2ppp[0].ppp txPk:sum(packetBytes) 0
scalar MultiCell.eNodeB2.x2ppp[0].ppp rcvdPkFromHl:count 0
scalar MultiCell.eNodeB2.x2ppp[0].ppp rcvdPkFromHl:sum(packetBytes) 0
scalar MultiCell.eNodeB2.x2ppp[0].ppp passedUpPk:count 0
scalar MultiCell.eNodeB2.x2ppp[0].ppp passedUpPk:sum(packetBytes) 0
scalar MultiCell.eNodeB2.x2ppp[0].ppp packetDropIncorrectlyReceived:count 0
scalar MultiCell.eNodeB2.x2ppp[0].ppp packetDropIncorrectlyReceived:sum(packetBytes) 0
scalar MultiCell.eNodeB2.x2ppp[0].ppp packetDropInterfaceDown:count 0
scalar MultiCell.eNodeB2.x2ppp[0].ppp packetDropInterfaceDown:sum(packetBytes) 0
scalar MultiCell.eNodeB2.x2ppp[0] packetDropInterfaceDown:count 0
scalar MultiCell.eNodeB2.x2ppp[0] packetDropInterfaceDown:sum(packetBytes) 0
scalar MultiCell.eNodeB2.x2ppp[0] packetDropNoCarrier:count 0
scalar MultiCell.eNodeB2.x2ppp[0] packetDropNoCarrier:sum(packetBytes) 0
scalar MultiCell.eNodeB2.pppMEHostIf.queue queueLength:last 0
scalar MultiCell.eNodeB2.pppMEHostIf.queue queueLength:max 0
scalar MultiCell.eNodeB2.pppMEHostIf.queue queueLength:timeavg 0
scalar MultiCell.eNodeB2.pppMEHostIf.queue queueBitLength:last 0
scalar MultiCell.eNodeB2.pppMEHostIf.queue queueBitLength:max 0
scalar MultiCell.eNodeB2.pppMEHostIf.queue queueBitLength:timeavg 0
scalar MultiCell.eNodeB2.pppMEHostIf.queue outgoingPackets:count 0
scalar MultiCell.eNodeB2.pppMEHostIf.queue outgoingPacketLengths:sum 0
scalar MultiCell.eNodeB2.pppMEHostIf.queue incomingPackets:count 0
scalar MultiCell.eNodeB2.pppMEHostIf.queue incomingPacketLengths:sum 0
scalar MultiCell.eNodeB2.pppMEHostIf.queue droppedPacketsQueueOverflow:count 0
scalar MultiCell.eNodeB2.pppMEHostIf.queue droppedPacketLengthsQueueOverflow:sum 0
scalar MultiCell.eNodeB2.pppMEHostIf.ppp transmissionState:timeavg 0
scalar MultiCell.eNodeB2.pppMEHostIf.ppp rxPkOk:count 0
scalar MultiCell.eNodeB2.pppMEHostIf.ppp rxPkOk:sum(packetBytes) 0
scalar MultiCell.eNodeB2.pppMEHostIf.ppp txPk:count 0
scalar MultiCell.eNodeB2.pppMEHostIf.ppp txPk:sum(packetBytes) 0
scalar MultiCell.eNodeB2.pppMEHostIf.ppp rcvdPkFromHl:count 0
scalar MultiCell.eNodeB2.pppMEHostIf.ppp rcvdPkFromHl:sum(packetBytes) 0
scalar MultiCell.eNodeB2.pppMEHostIf.ppp passedUpPk:count 0
scalar MultiCell.eNodeB2.pppMEHostIf.ppp passedUpPk:sum(packetBytes) 0
scalar MultiCell.eNodeB2.pppMEHostIf.ppp packetDropIncorrectlyReceived:count 0
scalar MultiCell.eNodeB2.pppMEHostIf.ppp packetDropIncorrectlyReceived:sum(packetBytes) 0
scalar MultiCell.eNodeB2.pppMEHostIf.ppp packetDropInterfaceDown:count 0
scalar MultiCell.eNodeB2.pppMEHostIf.ppp packetDropInterfaceDown:sum(packetBytes) 0
scalar MultiCell.eNodeB2.pppMEHostIf packetDropInterfaceDown:count 0
scalar MultiCell.eNodeB2.pppMEHostIf packetDropInterfaceDown:sum(packetBytes) 0
scalar MultiCell.eNodeB2.pppMEHostIf packetDropNoCarrier:count 0
scalar MultiCell.eNodeB2.pppMEHostIf packetDropNoCarrier:sum(packetBytes) 0
scalar MultiCell.eNodeB2.ipv4.ip packetDropAddressResolutionFailed:count 0
scalar MultiCell.eNodeB2.ipv4.ip packetDropAddressResolutionFailed:sum(packetBytes) 0
scalar MultiCell.eNodeB2.ipv4.ip packetDropHopLimitReached:count 0
scalar MultiCell.eNodeB2.ipv4.ip packetDropHopLimitReached:sum(packetBytes) 0
scalar MultiCell.eNodeB2.ipv4.ip packetDropForwardingDisabled:count 0
scalar MultiCell.eNodeB2.ipv4.ip packetDropForwardingDisabled:sum(packetBytes) 0
scalar MultiCell.eNodeB2.ipv4.ip packetDropNoInterfaceFound:count 0
scalar MultiCell.eNodeB2.ipv4.ip packetDropNoInterfaceFound:sum(packetBytes) 0
scalar MultiCell.eNodeB2.ipv4.ip packetDropNoRouteFound:count 0
scalar MultiCell.eNodeB2.ipv4.ip packetDropNoRouteFound:sum(packetBytes) 0
scalar MultiCell.eNodeB2.ipv4.ip packetDropUndefined:count 0
scalar MultiCell.eNodeB2.ipv4.ip packetDropUndefined:sum(packetBytes) 0
scalar MultiCell.eNodeB2.ipv4.arp arpResolutionFailed:count 0
scalar MultiCell.eNodeB2.ipv4.arp arpResolutionCompleted:count 0
scalar MultiCell.eNodeB2.ipv4.arp arpResolutionInitiated:count 0
scalar MultiCell.eNodeB2.ipv4.arp arpReplySent:count 0
scalar MultiCell.eNodeB2.ipv4.arp arpReplySent:sum(packetBytes) 0
scalar MultiCell.eNodeB2.ipv4.arp arpRequestSent:count 0
scalar MultiCell.eNodeB2.ipv4.arp arpRequestSent:sum(packetBytes) 0
scalar MultiCell.eNodeB2.udp packetReceived:count 4811
scalar MultiCell.eNodeB2.udp packetReceived:sum(packetBytes) 4244124
scalar MultiCell.eNodeB2.udp packetSent:count 2
scalar MultiCell.eNodeB2.udp packetSent:sum(packetBytes) 90
scalar MultiCell.eNodeB2.udp passedUpPk:count 4811
scalar MultiCell.eNodeB2.udp droppedPkWrongPort:count 0
scalar MultiCell.eNodeB2.udp droppedPkBadChecksum:count 0
scalar MultiCell.ue11.lo[0].lo rcvdPkFromHl:count 0
scalar MultiCell.ue11.lo[0].lo rcvdPkFromHl:sum(packetBytes) 0
scalar MultiCell.ue11.lo[0].lo passedUpPk:count 0
scalar MultiCell.ue11.lo[0].lo passedUpPk:sum(packetBytes) 0
scalar MultiCell.ue11.lo[0] packetDropInterfaceDown:count 0
scalar MultiCell.ue11.lo[0] packetDropInterfaceDown:sum(packetBytes) 0
scalar MultiCell.ue11.lo[0] packetDropNoCarrier:count 0
scalar MultiCell.ue11.lo[0] packetDropNoCarrier:sum(packetBytes) 0
scalar MultiCell.ue11.cellularNic.pdcp sentPacketToLowerLayer:count 812
scalar MultiCell.ue11.cellularNic.pdcp sentPacketToLowerLayer:sum(packetBytes) 55989
scalar MultiCell.ue11.cellularNic.pdcp sentPacketToUpperLayer:count 1998
scalar MultiCell.ue11.cellularNic.pdcp sentPacketToUpperLayer:sum(packetBytes) 2053944
scalar MultiCell.ue11.cellularNic.pdcp receivedPacketFromLowerLayer:count 1998
scalar MultiCell.ue11.cellularNic.pdcp receivedPacketFromLowerLayer:sum(packetBytes) 2055942
scalar MultiCell.ue11.cellularNic.pdcp receivedPacketFromUpperLayer:count 812
scalar MultiCell.ue11.cellularNic.pdcp receivedPacketFromUpperLayer:sum(packetBytes) 55177
scalar MultiCell.ue11.cellularNic.rlc.tm rlcPacketLossUl:mean -nan
scalar MultiCell.ue11.cellularNic.rlc.tm rlcPacketLossUl:sum 0
scalar MultiCell.ue11.cellularNic.rlc.tm rlcPacketLossDl:mean -nan
scalar MultiCell.ue11.cellularNic.rlc.tm rlcPacketLossDl:sum 0
scalar MultiCell.ue11.cellularNic.rlc.tm sentPacketToLowerLayer:count 0
scalar MultiCell.ue11.cellularNic.rlc.tm sentPacketToLowerLayer:sum(packetBytes) 0
scalar MultiCell.ue11.cellularNic.rlc.tm sentPacketToUpperLayer:count 0
scalar MultiCell.ue11.cellularNic.rlc.tm sentPacketToUpperLayer:sum(packetBytes) 0
scalar MultiCell.ue11.cellularNic.rlc.tm receivedPacketFromLowerLayer:count 0
scalar MultiCell.ue11.cellularNic.rlc.tm receivedPacketFromLowerLayer:sum(packetBytes) 0
scalar MultiCell.ue11.cellularNic.rlc.tm receivedPacketFromUpperLayer:count 0
scalar MultiCell.ue11.cellularNic.rlc.tm receivedPacketFromUpperLayer:sum(packetBytes) 0
scalar MultiCell.ue11.cellularNic.rlc.um rlcPacketLossTotal:mean 0
scalar MultiCell.ue11.cellularNic.rlc.um rlcCellThroughputUl:mean -nan
scalar MultiCell.ue11.cellularNic.rlc.um rlcCellThroughputDl:mean -nan
scalar MultiCell.ue11.cellularNic.rlc.um rlcPduThroughputUl:mean 0
scalar MultiCell.ue11.cellularNic.rlc.um rlcPduThroughputDl:mean 0
scalar MultiCell.ue11.cellularNic.rlc.um rlcPduDelayUl:mean 0.0040000000000000027
scalar MultiCell.ue11.cellularNic.rlc.um rlcPduDelayDl:mean 0.0039999999999996705
scalar MultiCell.ue11.cellularNic.rlc.um rlcThroughputUl:mean 3220.6995206131787
scalar MultiCell.ue11.cellularNic.rlc.um rlcThroughputDl:mean 102495.26993459606
scalar MultiCell.ue11.cellularNic.rlc.um rlcDelayUl:mean 0.0085833597768460359
scalar MultiCell.ue11.cellularNic.rlc.um rlcDelayDl:mean 0.0060606355635635586
scalar MultiCell.ue11.cellularNic.rlc.um rlcPduPacketLossUl:mean 0
scalar MultiCell.ue11.cellularNic.rlc.um rlcPduPacketLossDl:mean 0
scalar MultiCell.ue11.cellularNic.rlc.um rlcPacketLossUl:mean 0
scalar MultiCell.ue11.cellularNic.rlc.um rlcPacketLossUl:sum 0
scalar MultiCell.ue11.cellularNic.rlc.um rlcPacketLossDl:mean 0
scalar MultiCell.ue11.cellularNic.rlc.um rlcPacketLossDl:sum 0
scalar MultiCell.ue11.cellularNic.rlc.um rlcCellPacketLossUl:mean -nan
scalar MultiCell.ue11.cellularNic.rlc.um rlcCellPacketLossDl:mean -nan
scalar MultiCell.ue11.cellularNic.rlc.um sentPacketToLowerLayer:count 813
scalar MultiCell.ue11.cellularNic.rlc.um sentPacketToLowerLayer:sum(packetBytes) 57615
scalar MultiCell.ue11.cellularNic.rlc.um sentPacketToUpperLayer:count 1998
scalar MultiCell.ue11.cellularNic.rlc.um sentPacketToUpperLayer:sum(packetBytes) 2055942
scalar MultiCell.ue11.cellularNic.rlc.um receivedPacketFromLowerLayer:count 3997
scalar MultiCell.ue11.cellularNic.rlc.um receivedPacketFromLowerLayer:sum(packetBytes) 2064466
scalar MultiCell.ue11.cellularNic.rlc.um receivedPacketFromUpperLayer:count 812
scalar MultiCell.ue11.cellularNic.rlc.um receivedPacketFromUpperLayer:sum(packetBytes) 55989
scalar MultiCell.ue11.cellularNic.rlc.am rlcPacketLossTotal:mean -nan
scalar MultiCell.ue11.cellularNic.rlc.am rlcCellThroughputUl:mean -nan
scalar MultiCell.ue11.cellularNic.rlc.am rlcCellThroughputDl:mean -nan
scalar MultiCell.ue11.cellularNic.rlc.am rlcPduThroughputUl:mean -nan
scalar MultiCell.ue11.cellularNic.rlc.am rlcPduThroughputDl:mean -nan
scalar MultiCell.ue11.cellularNic.rlc.am rlcPduDelayUl:mean -nan
scalar MultiCell.ue11.cellularNic.rlc.am rlcPduDelayDl:mean -nan
scalar MultiCell.ue11.cellularNic.rlc.am rlcThroughputUl:mean -nan
scalar MultiCell.ue11.cellularNic.rlc.am rlcThroughputDl:mean -nan
scalar MultiCell.ue11.cellularNic.rlc.am rlcDelayUl:mean -nan
scalar MultiCell.ue11.cellularNic.rlc.am rlcDelayDl:mean -nan
scalar MultiCell.ue11.cellularNic.rlc.am rlcPduPacketLossUl:mean -nan
scalar MultiCell.ue11.cellularNic.rlc.am rlcPduPacketLossDl:mean -nan
scalar MultiCell.ue11.cellularNic.rlc.am rlcPacketLossUl:mean -nan
scalar MultiCell.ue11.cellularNic.rlc.am rlcPacketLossDl:mean -nan
scalar MultiCell.ue11.cellularNic.rlc.am rlcCellPacketLossUl:mean -nan
scalar MultiCell.ue11.cellularNic.rlc.am rlcCellPacketLossDl:mean -nan
scalar MultiCell.ue11.cellularNic.mac harqTxAttemptsUl:mean 1
scalar MultiCell.ue11.cellularNic.mac harqTxAttemptsDl:mean 1
scalar MultiCell.ue11.cellularNic.mac harqErrorRate_4th_Ul:mean -nan
scalar MultiCell.ue11.cellularNic.mac harqErrorRate_4th_Dl:mean -nan
scalar MultiCell.ue11.cellularNic.mac harqErrorRate_3rd_Ul:mean -nan
scalar MultiCell.ue11.cellularNic.mac harqErrorRate_3rd_Dl:mean -nan
scalar MultiCell.ue11.cellularNic.mac harqErrorRate_2nd_Ul:mean -nan
scalar MultiCell.ue11.cellularNic.mac harqErrorRate_2nd_Dl:mean -nan
scalar MultiCell.ue11.cellularNic.mac harqErrorRate_1st_Ul:mean 0
scalar MultiCell.ue11.cellularNic.mac harqErrorRate_1st_Dl:mean 0
scalar MultiCell.ue11.cellularNic.mac harqErrorRateUl:mean 0
scalar MultiCell.ue11.cellularNic.mac harqErrorRateDl:mean 0
scalar MultiCell.ue11.cellularNic.mac macCellPacketLossUl:mean -nan
scalar MultiCell.ue11.cellularNic.mac macCellPacketLossDl:mean -nan
scalar MultiCell.ue11.cellularNic.mac macPacketLossUl:mean 0
scalar MultiCell.ue11.cellularNic.mac macPacketLossDl:mean 0
scalar MultiCell.ue11.cellularNic.mac macThroughputUl:mean 3430.4835226528899
scalar MultiCell.ue11.cellularNic.mac macThroughputDl:mean 103219.0240691842
scalar MultiCell.ue11.cellularNic.mac macDelayUl:mean 0.0040000000000000027
scalar MultiCell.ue11.cellularNic.mac macDelayDl:mean 0.0039999999999996705
scalar MultiCell.ue11.cellularNic.mac macCellThroughputUl:mean -nan
scalar MultiCell.ue11.cellularNic.mac macCellThroughputDl:mean -nan
scalar MultiCell.ue11.cellularNic.mac sentPacketToLowerLayer:count 5620
scalar MultiCell.ue11.cellularNic.mac sentPacketToLowerLayer:sum(packetBytes) 64047
scalar MultiCell.ue11.cellularNic.mac sentPacketToUpperLayer:count 4810
scalar MultiCell.ue11.cellularNic.mac sentPacketToUpperLayer:sum(packetBytes) 2065279
scalar MultiCell.ue11.cellularNic.mac receivedPacketFromLowerLayer:count 6433
scalar MultiCell.ue11.cellularNic.mac receivedPacketFromLowerLayer:sum(packetBytes) 2075398
scalar MultiCell.ue11.cellularNic.mac receivedPacketFromUpperLayer:count 1625
scalar MultiCell.ue11.cellularNic.mac receivedPacketFromUpperLayer:sum(packetBytes) 115228
scalar MultiCell.ue11.cellularNic.mac macBufferOverFlowD2D:mean -nan
scalar MultiCell.ue11.cellularNic.mac macBufferOverFlowUl:mean -nan
scalar MultiCell.ue11.cellularNic.mac macBufferOverFlowDl:mean -nan
scalar MultiCell.ue11.cellularNic.phy distance:mean -nan
scalar MultiCell.ue11.cellularNic.phy averageCqiUl:mean 15
scalar MultiCell.ue11.cellularNic.phy averageCqiUl:count 812
scalar MultiCell.ue11.cellularNic.phy averageCqiDl:mean 15
scalar MultiCell.ue11.cellularNic.phy averageCqiDl:count 3998
scalar MultiCell.ue11.cellularNic.channelModel[0] measuredSinrUl:mean 44.036102783898571
scalar MultiCell.ue11.cellularNic.channelModel[0] measuredSinrDl:mean 49.30354954062571
scalar MultiCell.ue11.cellularNic.channelModel[0] rcvdSinrD2D:mean -nan
scalar MultiCell.ue11.cellularNic.channelModel[0] rcvdSinrUl:mean 43.889455137050859
scalar MultiCell.ue11.cellularNic.channelModel[0] rcvdSinrDl:mean 49.303549540627515
scalar MultiCell.ue11.cellularNic packetDropInterfaceDown:count 0
scalar MultiCell.ue11.cellularNic packetDropInterfaceDown:sum(packetBytes) 0
scalar MultiCell.ue11.cellularNic packetDropNoCarrier:count 0
scalar MultiCell.ue11.cellularNic packetDropNoCarrier:sum(packetBytes) 0
scalar MultiCell.ue11.encap pauseSent:count 0
scalar MultiCell.ue11.encap pauseSent:sum 0
scalar MultiCell.ue11.encap decapPk:count 0
scalar MultiCell.ue11.encap decapPk:sum(packetBytes) 0
scalar MultiCell.ue11.encap encapPk:count 0
scalar MultiCell.ue11.encap encapPk:sum(packetBytes) 0
scalar MultiCell.ue11.ipv4.ip packetDropAddressResolutionFailed:count 0
scalar MultiCell.ue11.ipv4.ip packetDropAddressResolutionFailed:sum(packetBytes) 0
scalar MultiCell.ue11.ipv4.ip packetDropHopLimitReached:count 0
scalar MultiCell.ue11.ipv4.ip packetDropHopLimitReached:sum(packetBytes) 0
scalar MultiCell.ue11.ipv4.ip packetDropForwardingDisabled:count 0
scalar MultiCell.ue11.ipv4.ip packetDropForwardingDisabled:sum(packetBytes) 0
scalar MultiCell.ue11.ipv4.ip packetDropNoInterfaceFound:count 0
scalar MultiCell.ue11.ipv4.ip packetDropNoInterfaceFound:sum(packetBytes) 0
scalar MultiCell.ue11.ipv4.ip packetDropNoRouteFound:count 0
scalar MultiCell.ue11.ipv4.ip packetDropNoRouteFound:sum(packetBytes) 0
scalar MultiCell.ue11.ipv4.ip packetDropUndefined:count 0
scalar MultiCell.ue11.ipv4.ip packetDropUndefined:sum(packetBytes) 0
scalar MultiCell.ue11.ipv4.arp arpResolutionFailed:count 0
scalar MultiCell.ue11.ipv4.arp arpResolutionCompleted:count 0
scalar MultiCell.ue11.ipv4.arp arpResolutionInitiated:count 0
scalar MultiCell.ue11.ipv4.arp arpReplySent:count 0
scalar MultiCell.ue11.ipv4.arp arpReplySent:sum(packetBytes) 0
scalar MultiCell.ue11.ipv4.arp arpRequestSent:count 0
scalar MultiCell.ue11.ipv4.arp arpRequestSent:sum(packetBytes) 0
scalar MultiCell.ue11.udp packetReceived:count 1998
scalar MultiCell.ue11.udp packetReceived:sum(packetBytes) 2013984
scalar MultiCell.ue11.udp packetSent:count 812
scalar MultiCell.ue11.udp packetSent:sum(packetBytes) 38937
scalar MultiCell.ue11.udp passedUpPk:count 1998
scalar MultiCell.ue11.udp droppedPkWrongPort:count 0
scalar MultiCell.ue11.udp droppedPkBadChecksum:count 0
scalar MultiCell.ue11.app[0] packetReceived:count 1998
scalar MultiCell.ue11.app[0] packetReceived:sum(packetBytes) 1998000
scalar MultiCell.ue11.app[1] voIPGeneratedThroughput:mean 1912.7663990416631
scalar MultiCell.ue12.lo[0].lo rcvdPkFromHl:count 0
scalar MultiCell.ue12.lo[0].lo rcvdPkFromHl:sum(packetBytes) 0
scalar MultiCell.ue12.lo[0].lo passedUpPk:count 0
scalar MultiCell.ue12.lo[0].lo passedUpPk:sum(packetBytes) 0
scalar MultiCell.ue12.lo[0] packetDropInterfaceDown:count 0
scalar MultiCell.ue12.lo[0] packetDropInterfaceDown:sum(packetBytes) 0
scalar MultiCell.ue12.lo[0] packetDropNoCarrier:count 0
scalar MultiCell.ue12.lo[0] packetDropNoCarrier:sum(packetBytes) 0
scalar MultiCell.ue12.cellularNic.pdcp sentPacketToLowerLayer:count 1
scalar MultiCell.ue12.cellularNic.pdcp sentPacketToLowerLayer:sum(packetBytes) 30
scalar MultiCell.ue12.cellularNic.pdcp sentPacketToUpperLayer:count 1999
scalar MultiCell.ue12.cellularNic.pdcp sentPacketToUpperLayer:sum(packetBytes) 2054972
scalar MultiCell.ue12.cellularNic.pdcp receivedPacketFromLowerLayer:count 1999
scalar MultiCell.ue12.cellularNic.pdcp receivedPacketFromLowerLayer:sum(packetBytes) 2056971
scalar MultiCell.ue12.cellularNic.pdcp receivedPacketFromUpperLayer:count 1
scalar MultiCell.ue12.cellularNic.pdcp receivedPacketFromUpperLayer:sum(packetBytes) 29
scalar MultiCell.ue12.cellularNic.rlc.tm rlcPacketLossUl:mean -nan
scalar MultiCell.ue12.cellularNic.rlc.tm rlcPacketLossUl:sum 0
scalar MultiCell.ue12.cellularNic.rlc.tm rlcPacketLossDl:mean -nan
scalar MultiCell.ue12.cellularNic.rlc.tm rlcPacketLossDl:sum 0
scalar MultiCell.ue12.cellularNic.rlc.tm sentPacketToLowerLayer:count 0
scalar MultiCell.ue12.cellularNic.rlc.tm sentPacketToLowerLayer:sum(packetBytes) 0
scalar MultiCell.ue12.cellularNic.rlc.tm sentPacketToUpperLayer:count 0
scalar MultiCell.ue12.cellularNic.rlc.tm sentPacketToUpperLayer:sum(packetBytes) 0
scalar MultiCell.ue12.cellularNic.rlc.tm receivedPacketFromLowerLayer:count 0
scalar MultiCell.ue12.cellularNic.rlc.tm receivedPacketFromLowerLayer:sum(packetBytes) 0
scalar MultiCell.ue12.cellularNic.rlc.tm receivedPacketFromUpperLayer:count 0
scalar MultiCell.ue12.cellularNic.rlc.tm receivedPacketFromUpperLayer:sum(packetBytes) 0
scalar MultiCell.ue12.cellularNic.rlc.um rlcPacketLossTotal:mean 0
scalar MultiCell.ue12.cellularNic.rlc.um rlcCellThroughputUl:mean -nan
scalar MultiCell.ue12.cellularNic.rlc.um rlcCellThroughputDl:mean -nan
scalar MultiCell.ue12.cellularNic.rlc.um rlcPduThroughputUl:mean 0
scalar MultiCell.ue12.cellularNic.rlc.um rlcPduThroughputDl:mean 0
scalar MultiCell.ue12.cellularNic.rlc.um rlcPduDelayUl:mean 0.0040000000000000001
scalar MultiCell.ue12.cellularNic.rlc.um rlcPduDelayDl:mean 0.0041905952976485743
scalar MultiCell.ue12.cellularNic.rlc.um rlcThroughputUl:mean 3333.3333333333335
scalar MultiCell.ue12.cellularNic.rlc.um rlcThroughputDl:mean 102696.45588329945
scalar MultiCell.ue12.cellularNic.rlc.um rlcDelayUl:mean 0.0089999999999999993
scalar MultiCell.ue12.cellularNic.rlc.um rlcDelayDl:mean 0.0063385875857927369
scalar MultiCell.ue12.cellularNic.rlc.um rlcPduPacketLossUl:mean 0
scalar MultiCell.ue12.cellularNic.rlc.um rlcPduPacketLossDl:mean 0
scalar MultiCell.ue12.cellularNic.rlc.um rlcPacketLossUl:mean 0
scalar MultiCell.ue12.cellularNic.rlc.um rlcPacketLossUl:sum 0
scalar MultiCell.ue12.cellularNic.rlc.um rlcPacketLossDl:mean 0
scalar MultiCell.ue12.cellularNic.rlc.um rlcPacketLossDl:sum 0
scalar MultiCell.ue12.cellularNic.rlc.um rlcCellPacketLossUl:mean -nan
scalar MultiCell.ue12.cellularNic.rlc.um rlcCellPacketLossDl:mean -nan
scalar MultiCell.ue12.cellularNic.rlc.um sentPacketToLowerLayer:count 1
scalar MultiCell.ue12.cellularNic.rlc.um sentPacketToLowerLayer:sum(packetBytes) 32
scalar MultiCell.ue12.cellularNic.rlc.um sentPacketToUpperLayer:count 1999
scalar MultiCell.ue12.cellularNic.rlc.um sentPacketToUpperLayer:sum(packetBytes) 2056971
scalar MultiCell.ue12.cellularNic.rlc.um receivedPacketFromLowerLayer:count 3998
scalar MultiCell.ue12.cellularNic.rlc.um receivedPacketFromLowerLayer:sum(packetBytes) 2064967
scalar MultiCell.ue12.cellularNic.rlc.um receivedPacketFromUpperLayer:count 1
scalar MultiCell.ue12.cellularNic.rlc.um receivedPacketFromUpperLayer:sum(packetBytes) 30
scalar MultiCell.ue12.cellularNic.rlc.am rlcPacketLossTotal:mean -nan
scalar MultiCell.ue12.cellularNic.rlc.am rlcCellThroughputUl:mean -nan
scalar MultiCell.ue12.cellularNic.rlc.am rlcCellThroughputDl:mean -nan
scalar MultiCell.ue12.cellularNic.rlc.am rlcPduThroughputUl:mean -nan
scalar MultiCell.ue12.cellularNic.rlc.am rlcPduThroughputDl:mean -nan
scalar MultiCell.ue12.cellularNic.rlc.am rlcPduDelayUl:mean -nan
scalar MultiCell.ue12.cellularNic.rlc.am rlcPduDelayDl:mean -nan
scalar MultiCell.ue12.cellularNic.rlc.am rlcThroughputUl:mean -nan
scalar MultiCell.ue12.cellularNic.rlc.am rlcThroughputDl:mean -nan
scalar MultiCell.ue12.cellularNic.rlc.am rlcDelayUl:mean -nan
scalar MultiCell.ue12.cellularNic.rlc.am rlcDelayDl:mean -nan
scalar MultiCell.ue12.cellularNic.rlc.am rlcPduPacketLossUl:mean -nan
scalar MultiCell.ue12.cellularNic.rlc.am rlcPduPacketLossDl:mean -nan
scalar MultiCell.ue12.cellularNic.rlc.am rlcPacketLossUl:mean -nan
scalar MultiCell.ue12.cellularNic.rlc.am rlcPacketLossDl:mean -nan
scalar MultiCell.ue12.cellularNic.rlc.am rlcCellPacketLossUl:mean -nan
scalar MultiCell.ue12.cellularNic.rlc.am rlcCellPacketLossDl:mean -nan
scalar MultiCell.ue12.cellularNic.mac harqTxAttemptsUl:mean 1
scalar MultiCell.ue12.cellularNic.mac harqTxAttemptsDl:mean 1.0317658829414706
scalar MultiCell.ue12.cellularNic.mac harqErrorRate_4th_Ul:mean -nan
scalar MultiCell.ue12.cellularNic.mac harqErrorRate_4th_Dl:mean -nan
scalar MultiCell.ue12.cellularNic.mac harqErrorRate_3rd_Ul:mean -nan
scalar MultiCell.ue12.cellularNic.mac harqErrorRate_3rd_Dl:mean -nan
scalar MultiCell.ue12.cellularNic.mac harqErrorRate_2nd_Ul:mean -nan
scalar MultiCell.ue12.cellularNic.mac harqErrorRate_2nd_Dl:mean 0
scalar MultiCell.ue12.cellularNic.mac harqErrorRate_1st_Ul:mean 0
scalar MultiCell.ue12.cellularNic.mac harqErrorRate_1st_Dl:mean 0.031765882941470737
scalar MultiCell.ue12.cellularNic.mac harqErrorRateUl:mean 0
scalar MultiCell.ue12.cellularNic.mac harqErrorRateDl:mean 0.030787878787878788
scalar MultiCell.ue12.cellularNic.mac macCellPacketLossUl:mean -nan
scalar MultiCell.ue12.cellularNic.mac macCellPacketLossDl:mean -nan
scalar MultiCell.ue12.cellularNic.mac macPacketLossUl:mean 0
scalar MultiCell.ue12.cellularNic.mac macPacketLossDl:mean 0
scalar MultiCell.ue12.cellularNic.mac macThroughputUl:mean 3777.7777777777783
scalar MultiCell.ue12.cellularNic.mac macThroughputDl:mean 103420.83426526301
scalar MultiCell.ue12.cellularNic.mac macDelayUl:mean 0.0040000000000000001
scalar MultiCell.ue12.cellularNic.mac macDelayDl:mean 0.0041905952976485743
scalar MultiCell.ue12.cellularNic.mac macCellThroughputUl:mean -nan
scalar MultiCell.ue12.cellularNic.mac macCellThroughputDl:mean -nan
scalar MultiCell.ue12.cellularNic.mac sentPacketToLowerLayer:count 4127
scalar MultiCell.ue12.cellularNic.mac sentPacketToLowerLayer:sum(packetBytes) 4160
scalar MultiCell.ue12.cellularNic.mac sentPacketToUpperLayer:count 3999
scalar MultiCell.ue12.cellularNic.mac sentPacketToUpperLayer:sum(packetBytes) 2064968
scalar MultiCell.ue12.cellularNic.mac receivedPacketFromLowerLayer:count 4128
scalar MultiCell.ue12.cellularNic.mac receivedPacketFromLowerLayer:sum(packetBytes) 2138893
scalar MultiCell.ue12.cellularNic.mac receivedPacketFromUpperLayer:count 2
scalar MultiCell.ue12.cellularNic.mac receivedPacketFromUpperLayer:sum(packetBytes) 64
scalar MultiCell.ue12.cellularNic.mac macBufferOverFlowD2D:mean -nan
scalar MultiCell.ue12.cellularNic.mac macBufferOverFlowUl:mean -nan
scalar MultiCell.ue12.cellularNic.mac macBufferOverFlowDl:mean -nan
scalar MultiCell.ue12.cellularNic.phy distance:mean -nan
scalar MultiCell.ue12.cellularNic.phy averageCqiUl:mean 14
scalar MultiCell.ue12.cellularNic.phy averageCqiUl:count 1
scalar MultiCell.ue12.cellularNic.phy averageCqiDl:mean 14
scalar MultiCell.ue12.cellularNic.phy averageCqiDl:count 4125
scalar MultiCell.ue12.cellularNic.channelModel[0] measuredSinrUl:mean 35.906347776453813
scalar MultiCell.ue12.cellularNic.channelModel[0] measuredSinrDl:mean 36.361160082389638
scalar MultiCell.ue12.cellularNic.channelModel[0] rcvdSinrD2D:mean -nan
scalar MultiCell.ue12.cellularNic.channelModel[0] rcvdSinrUl:mean 33.581763718261556
scalar MultiCell.ue12.cellularNic.channelModel[0] rcvdSinrDl:mean 36.361160082390342
scalar MultiCell.ue12.cellularNic packetDropInterfaceDown:count 0
scalar MultiCell.ue12.cellularNic packetDropInterfaceDown:sum(packetBytes) 0
scalar MultiCell.ue12.cellularNic packetDropNoCarrier:count 0
scalar MultiCell.ue12.cellularNic packetDropNoCarrier:sum(packetBytes) 0
scalar MultiCell.ue12.encap pauseSent:count 0
scalar MultiCell.ue12.encap pauseSent:sum 0
scalar MultiCell.ue12.encap decapPk:count 0
scalar MultiCell.ue12.encap decapPk:sum(packetBytes) 0
scalar MultiCell.ue12.encap encapPk:count 0
scalar MultiCell.ue12.encap encapPk:sum(packetBytes) 0
scalar MultiCell.ue12.ipv4.ip packetDropAddressResolutionFailed:count 0
scalar MultiCell.ue12.ipv4.ip packetDropAddressResolutionFailed:sum(packetBytes) 0
scalar MultiCell.ue12.ipv4.ip packetDropHopLimitReached:count 0
scalar MultiCell.ue12.ipv4.ip packetDropHopLimitReached:sum(packetBytes) 0
scalar MultiCell.ue12.ipv4.ip packetDropForwardingDisabled:count 0
scalar MultiCell.ue12.ipv4.ip packetDropForwardingDisabled:sum(packetBytes) 0
scalar MultiCell.ue12.ipv4.ip packetDropNoInterfaceFound:count 0
scalar MultiCell.ue12.ipv4.ip packetDropNoInterfaceFound:sum(packetBytes) 0
scalar MultiCell.ue12.ipv4.ip packetDropNoRouteFound:count 0
scalar MultiCell.ue12.ipv4.ip packetDropNoRouteFound:sum(packetBytes) 0
scalar MultiCell.ue12.ipv4.ip packetDropUndefined:count 0
scalar MultiCell.ue12.ipv4.ip packetDropUndefined:sum(packetBytes) 0
scalar MultiCell.ue12.ipv4.arp arpResolutionFailed:count 0
scalar MultiCell.ue12.ipv4.arp arpResolutionCompleted:count 0
scalar MultiCell.ue12.ipv4.arp arpResolutionInitiated:count 0
scalar MultiCell.ue12.ipv4.arp arpReplySent:count 0
scalar MultiCell.ue12.ipv4.arp arpReplySent:sum(packetBytes) 0
scalar MultiCell.ue12.ipv4.arp arpRequestSent:count 0
scalar MultiCell.ue12.ipv4.arp arpRequestSent:sum(packetBytes) 0
scalar MultiCell.ue12.udp packetReceived:count 1999
scalar MultiCell.ue12.udp packetReceived:sum(packetBytes) 2014992
scalar MultiCell.ue12.udp packetSent:count 1
scalar MultiCell.ue12.udp packetSent:sum(packetBytes) 9
scalar MultiCell.ue12.udp passedUpPk:count 1999
scalar MultiCell.ue12.udp droppedPkWrongPort:count 0
scalar MultiCell.ue12.udp droppedPkBadChecksum:count 0
scalar MultiCell.ue12.app[0] packetReceived:count 1999
scalar MultiCell.ue12.app[0] packetReceived:sum(packetBytes) 1999000
scalar MultiCell.ue21.lo[0].lo rcvdPkFromHl:count 0
scalar MultiCell.ue21.lo[0].lo rcvdPkFromHl:sum(packetBytes) 0
scalar MultiCell.ue21.lo[0].lo passedUpPk:count 0
scalar MultiCell.ue21.lo[0].lo passedUpPk:sum(packetBytes) 0
scalar MultiCell.ue21.lo[0] packetDropInterfaceDown:count 0
scalar MultiCell.ue21.lo[0] packetDropInterfaceDown:sum(packetBytes) 0
scalar MultiCell.ue21.lo[0] packetDropNoCarrier:count 0
scalar MultiCell.ue21.lo[0] packetDropNoCarrier:sum(packetBytes) 0
scalar MultiCell.ue21.cellularNic.pdcp sentPacketToLowerLayer:count 1
scalar MultiCell.ue21.cellularNic.pdcp sentPacketToLowerLayer:sum(packetBytes) 30
scalar MultiCell.ue21.cellularNic.pdcp sentPacketToUpperLayer:count 1999
scalar MultiCell.ue21.cellularNic.pdcp sentPacketToUpperLayer:sum(packetBytes) 2054972
scalar MultiCell.ue21.cellularNic.pdcp receivedPacketFromLowerLayer:count 1999
scalar MultiCell.ue21.cellularNic.pdcp receivedPacketFromLowerLayer:sum(packetBytes) 2056971
scalar MultiCell.ue21.cellularNic.pdcp receivedPacketFromUpperLayer:count 1
scalar MultiCell.ue21.cellularNic.pdcp receivedPacketFromUpperLayer:sum(packetBytes) 29
scalar MultiCell.ue21.cellularNic.rlc.tm rlcPacketLossUl:mean -nan
scalar MultiCell.ue21.cellularNic.rlc.tm rlcPacketLossUl:sum 0
scalar MultiCell.ue21.cellularNic.rlc.tm rlcPacketLossDl:mean -nan
scalar MultiCell.ue21.cellularNic.rlc.tm rlcPacketLossDl:sum 0
scalar MultiCell.ue21.cellularNic.rlc.tm sentPacketToLowerLayer:count 0
scalar MultiCell.ue21.cellularNic.rlc.tm sentPacketToLowerLayer:sum(packetBytes) 0
scalar MultiCell.ue21.cellularNic.rlc.tm sentPacketToUpperLayer:count 0
scalar MultiCell.ue21.cellularNic.rlc.tm sentPacketToUpperLayer:sum(packetBytes) 0
scalar MultiCell.ue21.cellularNic.rlc.tm receivedPacketFromLowerLayer:count 0
scalar MultiCell.ue21.cellularNic.rlc.tm receivedPacketFromLowerLayer:sum(packetBytes) 0
scalar MultiCell.ue21.cellularNic.rlc.tm receivedPacketFromUpperLayer:count 0
scalar MultiCell.ue21.cellularNic.rlc.tm receivedPacketFromUpperLayer:sum(packetBytes) 0
scalar MultiCell.ue21.cellularNic.rlc.um rlcPacketLossTotal:mean 0
scalar MultiCell.ue21.cellularNic.rlc.um rlcCellThroughputUl:mean -nan
scalar MultiCell.ue21.cellularNic.rlc.um rlcCellThroughputDl:mean -nan
scalar MultiCell.ue21.cellularNic.rlc.um rlcPduThroughputUl:mean 0
scalar MultiCell.ue21.cellularNic.rlc.um rlcPduThroughputDl:mean 0
scalar MultiCell.ue21.cellularNic.rlc.um rlcPduDelayUl:mean 0.0040000000000000001
scalar MultiCell.ue21.cellularNic.rlc.um rlcPduDelayDl:mean 0.0039999999999997451
scalar MultiCell.ue21.cellularNic.rlc.um rlcThroughputUl:mean 3333.3333333333335
scalar MultiCell.ue21.cellularNic.rlc.um rlcThroughputDl:mean 102647.54318547332
scalar MultiCell.ue21.cellularNic.rlc.um rlcDelayUl:mean 0.0089999999999999993
scalar MultiCell.ue21.cellularNic.rlc.um rlcDelayDl:mean 0.0073882675977990329
scalar MultiCell.ue21.cellularNic.rlc.um rlcPduPacketLossUl:mean 0
scalar MultiCell.ue21.cellularNic.rlc.um rlcPduPacketLossDl:mean 0
scalar MultiCell.ue21.cellularNic.rlc.um rlcPacketLossUl:mean 0
scalar MultiCell.ue21.cellularNic.rlc.um rlcPacketLossUl:sum 0
scalar MultiCell.ue21.cellularNic.rlc.um rlcPacketLossDl:mean 0
scalar MultiCell.ue21.cellularNic.rlc.um rlcPacketLossDl:sum 0
scalar MultiCell.ue21.cellularNic.rlc.um rlcCellPacketLossUl:mean -nan
scalar MultiCell.ue21.cellularNic.rlc.um rlcCellPacketLossDl:mean -nan
scalar MultiCell.ue21.cellularNic.rlc.um sentPacketToLowerLayer:count 1
scalar MultiCell.ue21.cellularNic.rlc.um sentPacketToLowerLayer:sum(packetBytes) 32
scalar MultiCell.ue21.cellularNic.rlc.um sentPacketToUpperLayer:count 1999
scalar MultiCell.ue21.cellularNic.rlc.um sentPacketToUpperLayer:sum(packetBytes) 2056971
scalar MultiCell.ue21.cellularNic.rlc.um receivedPacketFromLowerLayer:count 4188
scalar MultiCell.ue21.cellularNic.rlc.um receivedPacketFromLowerLayer:sum(packetBytes) 2065347
scalar MultiCell.ue21.cellularNic.rlc.um receivedPacketFromUpperLayer:count 1
scalar MultiCell.ue21.cellularNic.rlc.um receivedPacketFromUpperLayer:sum(packetBytes) 30
scalar MultiCell.ue21.cellularNic.rlc.am rlcPacketLossTotal:mean -nan
scalar MultiCell.ue21.cellularNic.rlc.am rlcCellThroughputUl:mean -nan
scalar MultiCell.ue21.cellularNic.rlc.am rlcCellThroughputDl:mean -nan
scalar MultiCell.ue21.cellularNic.rlc.am rlcPduThroughputUl:mean -nan
scalar MultiCell.ue21.cellularNic.rlc.am rlcPduThroughputDl:mean -nan
scalar MultiCell.ue21.cellularNic.rlc.am rlcPduDelayUl:mean -nan
scalar MultiCell.ue21.cellularNic.rlc.am rlcPduDelayDl:mean -nan
scalar MultiCell.ue21.cellularNic.rlc.am rlcThroughputUl:mean -nan
scalar MultiCell.ue21.cellularNic.rlc.am rlcThroughputDl:mean -nan
scalar MultiCell.ue21.cellularNic.rlc.am rlcDelayUl:mean -nan
scalar MultiCell.ue21.cellularNic.rlc.am rlcDelayDl:mean -nan
scalar MultiCell.ue21.cellularNic.rlc.am rlcPduPacketLossUl:mean -nan
scalar MultiCell.ue21.cellularNic.rlc.am rlcPduPacketLossDl:mean -nan
scalar MultiCell.ue21.cellularNic.rlc.am rlcPacketLossUl:mean -nan
scalar MultiCell.ue21.cellularNic.rlc.am rlcPacketLossDl:mean -nan
scalar MultiCell.ue21.cellularNic.rlc.am rlcCellPacketLossUl:mean -nan
scalar MultiCell.ue21.cellularNic.rlc.am rlcCellPacketLossDl:mean -nan
scalar MultiCell.ue21.cellularNic.mac harqTxAttemptsUl:mean 1
scalar MultiCell.ue21.cellularNic.mac harqTxAttemptsDl:mean 1
scalar MultiCell.ue21.cellularNic.mac harqErrorRate_4th_Ul:mean -nan
scalar MultiCell.ue21.cellularNic.mac harqErrorRate_4th_Dl:mean -nan
scalar MultiCell.ue21.cellularNic.mac harqErrorRate_3rd_Ul:mean -nan
scalar MultiCell.ue21.cellularNic.mac harqErrorRate_3rd_Dl:mean -nan
scalar MultiCell.ue21.cellularNic.mac harqErrorRate_2nd_Ul:mean -nan
scalar MultiCell.ue21.cellularNic.mac harqErrorRate_2nd_Dl:mean -nan
scalar MultiCell.ue21.cellularNic.mac harqErrorRate_1st_Ul:mean 0
scalar MultiCell.ue21.cellularNic.mac harqErrorRate_1st_Dl:mean 0
scalar MultiCell.ue21.cellularNic.mac harqErrorRateUl:mean 0
scalar MultiCell.ue21.cellularNic.mac harqErrorRateDl:mean 0
scalar MultiCell.ue21.cellularNic.mac macCellPacketLossUl:mean -nan
scalar MultiCell.ue21.cellularNic.mac macCellPacketLossDl:mean -nan
scalar MultiCell.ue21.cellularNic.mac macPacketLossUl:mean 0
scalar MultiCell.ue21.cellularNic.mac macPacketLossDl:mean 0
scalar MultiCell.ue21.cellularNic.mac macThroughputUl:mean 3777.7777777777783
scalar MultiCell.ue21.cellularNic.mac macThroughputDl:mean 103434.49960888865
scalar MultiCell.ue21.cellularNic.mac macDelayUl:mean 0.0040000000000000001
scalar MultiCell.ue21.cellularNic.mac macDelayDl:mean 0.0039999999999997451
scalar MultiCell.ue21.cellularNic.mac macCellThroughputUl:mean -nan
scalar MultiCell.ue21.cellularNic.mac macCellThroughputDl:mean -nan
scalar MultiCell.ue21.cellularNic.mac sentPacketToLowerLayer:count 4190
scalar MultiCell.ue21.cellularNic.mac sentPacketToLowerLayer:sum(packetBytes) 4223
scalar MultiCell.ue21.cellularNic.mac sentPacketToUpperLayer:count 4189
scalar MultiCell.ue21.cellularNic.mac sentPacketToUpperLayer:sum(packetBytes) 2065348
scalar MultiCell.ue21.cellularNic.mac receivedPacketFromLowerLayer:count 4191
scalar MultiCell.ue21.cellularNic.mac receivedPacketFromLowerLayer:sum(packetBytes) 2073726
scalar MultiCell.ue21.cellularNic.mac receivedPacketFromUpperLayer:count 2
[...]
scalar MultiCell.ue22.cellularNic.phy averageCqiDl:vector:sum 0
scalar MultiCell.ue22.cellularNic.phy averageCqiDl:vector:sumweights 0
scalar MultiCell.ue22.cellularNic.phy averageCqiDl:vector:mean -nan
scalar MultiCell.ue22.cellularNic.phy averageCqiDl:vector:stddev nan
scalar MultiCell.ue22.cellularNic.phy averageCqiDl:vector:min inf
scalar MultiCell.ue22.cellularNic.phy averageCqiDl:vector:max -inf
scalar MultiCell.ue22.cellularNic.phy averageCqiDl:vector:starttime nan
scalar MultiCell.ue22.cellularNic.phy averageCqiDl:vector:endtime nan
scalar MultiCell.ue22.cellularNic.phy averageCqiUl:vector:count 0
scalar MultiCell.ue22.cellularNic.phy averageCqiUl:vector:sum 0
scalar MultiCell.ue22.cellularNic.phy averageCqiUl:vector:sumweights 0
scalar MultiCell.ue22.cellularNic.phy averageCqiUl:vector:mean -nan
scalar MultiCell.ue22.cellularNic.phy averageCqiUl:vector:stddev nan
scalar MultiCell.ue22.cellularNic.phy averageCqiUl:vector:min inf
scalar MultiCell.ue22.cellularNic.phy averageCqiUl:vector:max -inf
scalar MultiCell.ue22.cellularNic.phy averageCqiUl:vector:starttime nan
scalar MultiCell.ue22.cellularNic.phy averageCqiUl:vector:endtime nan
scalar MultiCell.ue22.cellularNic.channelModel[0] rcvdSinrDl:vector:count 0
scalar MultiCell.ue22.cellularNic.channelModel[0] rcvdSinrDl:vector:sum 0
scalar MultiCell.ue22.cellularNic.channelModel[0] rcvdSinrDl:vector:sumweights 0
scalar MultiCell.ue22.cellularNic.channelModel[0] rcvdSinrDl:vector:mean -nan
scalar MultiCell.ue22.cellularNic.channelModel[0] rcvdSinrDl:vector:stddev nan
scalar MultiCell.ue22.cellularNic.channelModel[0] rcvdSinrDl:vector:min inf
scalar MultiCell.ue22.cellularNic.channelModel[0] rcvdSinrDl:vector:max -inf
scalar MultiCell.ue22.cellularNic.channelModel[0] rcvdSinrDl:vector:starttime nan
scalar MultiCell.ue22.cellularNic.channelModel[0] rcvdSinrDl:vector:endtime nan
scalar MultiCell.ue22.cellularNic.channelModel[0] rcvdSinrUl:vector:count 0
scalar MultiCell.ue22.cellularNic.channelModel[0] rcvdSinrUl:vector:sum 0
scalar MultiCell.ue22.cellularNic.channelModel[0] rcvdSinrUl:vector:sumweights 0
scalar MultiCell.ue22.cellularNic.channelModel[0] rcvdSinrUl:vector:mean -nan
scalar MultiCell.ue22.cellularNic.channelModel[0] rcvdSinrUl:vector:stddev nan
scalar MultiCell.ue22.cellularNic.channelModel[0] rcvdSinrUl:vector:min inf
scalar MultiCell.ue22.cellularNic.channelModel[0] rcvdSinrUl:vector:max -inf
scalar MultiCell.ue22.cellularNic.channelModel[0] rcvdSinrUl:vector:starttime nan
scalar MultiCell.ue22.cellularNic.channelModel[0] rcvdSinrUl:vector:endtime nan
scalar MultiCell.ue22.cellularNic.channelModel[0] rcvdSinrD2D:vector:count 0
scalar MultiCell.ue22.cellularNic.channelModel[0] rcvdSinrD2D:vector:sum 0
scalar MultiCell.ue22.cellularNic.channelModel[0] rcvdSinrD2D:vector:sumweights 0
scalar MultiCell.ue22.cellularNic.channelModel[0] rcvdSinrD2D:vector:mean -nan
scalar MultiCell.ue22.cellularNic.channelModel[0] rcvdSinrD2D:vector:stddev nan
scalar MultiCell.ue22.cellularNic.channelModel[0] rcvdSinrD2D:vector:min inf
scalar MultiCell.ue22.cellularNic.channelModel[0] rcvdSinrD2D:vector:max -inf
scalar MultiCell.ue22.cellularNic.channelModel[0] rcvdSinrD2D:vector:starttime nan
scalar MultiCell.ue22.cellularNic.channelModel[0] rcvdSinrD2D:vector:endtime nan
scalar MultiCell.ue22.cellularNic.channelModel[0] measuredSinrDl:vector:count 0
scalar MultiCell.ue22.cellularNic.channelModel[0] measuredSinrDl:vector:sum 0
scalar MultiCell.ue22.cellularNic.channelModel[0] measuredSinrDl:vector:sumweights 0
scalar MultiCell.ue22.cellularNic.channelModel[0] measuredSinrDl:vector:mean -nan
scalar MultiCell.ue22.cellularNic.channelModel[0] measuredSinrDl:vector:stddev nan
scalar MultiCell.ue22.cellularNic.channelModel[0] measuredSinrDl:vector:min inf
scalar MultiCell.ue22.cellularNic.channelModel[0] measuredSinrDl:vector:max -inf
scalar MultiCell.ue22.cellularNic.channelModel[0] measuredSinrDl:vector:starttime nan
scalar MultiCell.ue22.cellularNic.channelModel[0] measuredSinrDl:vector:endtime nan
scalar MultiCell.ue22.cellularNic.channelModel[0] measuredSinrUl:vector:count 0
scalar MultiCell.ue22.cellularNic.channelModel[0] measuredSinrUl:vector:sum 0
scalar MultiCell.ue22.cellularNic.channelModel[0] measuredSinrUl:vector:sumweights 0
scalar MultiCell.ue22.cellularNic.channelModel[0] measuredSinrUl:vector:mean -nan
scalar MultiCell.ue22.cellularNic.channelModel[0] measuredSinrUl:vector:stddev nan
scalar MultiCell.ue22.cellularNic.channelModel[0] measuredSinrUl:vector:min inf
scalar MultiCell.ue22.cellularNic.channelModel[0] measuredSinrUl:vector:max -inf
scalar MultiCell.ue22.cellularNic.channelModel[0] measuredSinrUl:vector:starttime nan
scalar MultiCell.ue22.cellularNic.channelModel[0] measuredSinrUl:vector:endtime nan
scalar MultiCell.ue22.cellularNic packetDropInterfaceDown:vector(packetBytes):count 0
scalar MultiCell.ue22.cellularNic packetDropInterfaceDown:vector(packetBytes):sum 0
scalar MultiCell.ue22.cellularNic packetDropInterfaceDown:vector(packetBytes):sumweights 0
scalar MultiCell.ue22.cellularNic packetDropInterfaceDown:vector(packetBytes):mean -nan
scalar MultiCell.ue22.cellularNic packetDropInterfaceDown:vector(packetBytes):stddev nan
scalar MultiCell.ue22.cellularNic packetDropInterfaceDown:vector(packetBytes):min inf
scalar MultiCell.ue22.cellularNic packetDropInterfaceDown:vector(packetBytes):max -inf
scalar MultiCell.ue22.cellularNic packetDropInterfaceDown:vector(packetBytes):starttime nan
scalar MultiCell.ue22.cellularNic packetDropInterfaceDown:vector(packetBytes):endtime nan
scalar MultiCell.ue22.cellularNic packetDropNoCarrier:vector(packetBytes):count 0
scalar MultiCell.ue22.cellularNic packetDropNoCarrier:vector(packetBytes):sum 0
scalar MultiCell.ue22.cellularNic packetDropNoCarrier:vector(packetBytes):sumweights 0
scalar MultiCell.ue22.cellularNic packetDropNoCarrier:vector(packetBytes):mean -nan
scalar MultiCell.ue22.cellularNic packetDropNoCarrier:vector(packetBytes):stddev nan
scalar MultiCell.ue22.cellularNic packetDropNoCarrier:vector(packetBytes):min inf
scalar MultiCell.ue22.cellularNic packetDropNoCarrier:vector(packetBytes):max -inf
scalar MultiCell.ue22.cellularNic packetDropNoCarrier:vector(packetBytes):starttime nan
scalar MultiCell.ue22.cellularNic packetDropNoCarrier:vector(packetBytes):endtime nan
scalar MultiCell.ue22.encap encapPk:vector(packetBytes):count 0
scalar MultiCell.ue22.encap encapPk:vector(packetBytes):sum 0
scalar MultiCell.ue22.encap encapPk:vector(packetBytes):sumweights 0
scalar MultiCell.ue22.encap encapPk:vector(packetBytes):mean -nan
scalar MultiCell.ue22.encap encapPk:vector(packetBytes):stddev nan
scalar MultiCell.ue22.encap encapPk:vector(packetBytes):min inf
scalar MultiCell.ue22.encap encapPk:vector(packetBytes):max -inf
scalar MultiCell.ue22.encap encapPk:vector(packetBytes):starttime nan
scalar MultiCell.ue22.encap encapPk:vector(packetBytes):endtime nan
scalar MultiCell.ue22.encap decapPk:vector(packetBytes):count 0
scalar MultiCell.ue22.encap decapPk:vector(packetBytes):sum 0
scalar MultiCell.ue22.encap decapPk:vector(packetBytes):sumweights 0
scalar MultiCell.ue22.encap decapPk:vector(packetBytes):mean -nan
scalar MultiCell.ue22.encap decapPk:vector(packetBytes):stddev nan
scalar MultiCell.ue22.encap decapPk:vector(packetBytes):min inf
scalar MultiCell.ue22.encap decapPk:vector(packetBytes):max -inf
scalar MultiCell.ue22.encap decapPk:vector(packetBytes):starttime nan
scalar MultiCell.ue22.encap decapPk:vector(packetBytes):endtime nan
scalar MultiCell.ue22.encap pauseSent:vector:count 0
scalar MultiCell.ue22.encap pauseSent:vector:sum 0
scalar MultiCell.ue22.encap pauseSent:vector:sumweights 0
scalar MultiCell.ue22.encap pauseSent:vector:mean -nan
scalar MultiCell.ue22.encap pauseSent:vector:stddev nan
scalar MultiCell.ue22.encap pauseSent:vector:min inf
scalar MultiCell.ue22.encap pauseSent:vector:max -inf
scalar MultiCell.ue22.encap pauseSent:vector:starttime nan
scalar MultiCell.ue22.encap pauseSent:vector:endtime nan
scalar MultiCell.ue22.ipv4.ip packetDropAddressResolutionFailed:vector(packetBytes):count 0
scalar MultiCell.ue22.ipv4.ip packetDropAddressResolutionFailed:vector(packetBytes):sum 0
scalar MultiCell.ue22.ipv4.ip packetDropAddressResolutionFailed:vector(packetBytes):sumweights 0
scalar MultiCell.ue22.ipv4.ip packetDropAddressResolutionFailed:vector(packetBytes):mean -nan
scalar MultiCell.ue22.ipv4.ip packetDropAddressResolutionFailed:vector(packetBytes):stddev nan
scalar MultiCell.ue22.ipv4.ip packetDropAddressResolutionFailed:vector(packetBytes):min inf
scalar MultiCell.ue22.ipv4.ip packetDropAddressResolutionFailed:vector(packetBytes):max -inf
scalar MultiCell.ue22.ipv4.ip packetDropAddressResolutionFailed:vector(packetBytes):starttime nan
scalar MultiCell.ue22.ipv4.ip packetDropAddressResolutionFailed:vector(packetBytes):endtime nan
scalar MultiCell.ue22.ipv4.ip packetDropHopLimitReached:vector(packetBytes):count 0
scalar MultiCell.ue22.ipv4.ip packetDropHopLimitReached:vector(packetBytes):sum 0
scalar MultiCell.ue22.ipv4.ip packetDropHopLimitReached:vector(packetBytes):sumweights 0
scalar MultiCell.ue22.ipv4.ip packetDropHopLimitReached:vector(packetBytes):mean -nan
scalar MultiCell.ue22.ipv4.ip packetDropHopLimitReached:vector(packetBytes):stddev nan
scalar MultiCell.ue22.ipv4.ip packetDropHopLimitReached:vector(packetBytes):min inf
scalar MultiCell.ue22.ipv4.ip packetDropHopLimitReached:vector(packetBytes):max -inf
scalar MultiCell.ue22.ipv4.ip packetDropHopLimitReached:vector(packetBytes):starttime nan
scalar MultiCell.ue22.ipv4.ip packetDropHopLimitReached:vector(packetBytes):endtime nan
scalar MultiCell.ue22.ipv4.ip packetDropForwardingDisabled:vector(packetBytes):count 0
scalar MultiCell.ue22.ipv4.ip packetDropForwardingDisabled:vector(packetBytes):sum 0
scalar MultiCell.ue22.ipv4.ip packetDropForwardingDisabled:vector(packetBytes):sumweights 0
scalar MultiCell.ue22.ipv4.ip packetDropForwardingDisabled:vector(packetBytes):mean -nan
scalar MultiCell.ue22.ipv4.ip packetDropForwardingDisabled:vector(packetBytes):stddev nan
scalar MultiCell.ue22.ipv4.ip packetDropForwardingDisabled:vector(packetBytes):min inf
scalar MultiCell.ue22.ipv4.ip packetDropForwardingDisabled:vector(packetBytes):max -inf
scalar MultiCell.ue22.ipv4.ip packetDropForwardingDisabled:vector(packetBytes):starttime nan
scalar MultiCell.ue22.ipv4.ip packetDropForwardingDisabled:vector(packetBytes):endtime nan
scalar MultiCell.ue22.ipv4.ip packetDropNoInterfaceFound:vector(packetBytes):count 0
scalar MultiCell.ue22.ipv4.ip packetDropNoInterfaceFound:vector(packetBytes):sum 0
scalar MultiCell.ue22.ipv4.ip packetDropNoInterfaceFound:vector(packetBytes):sumweights 0
scalar MultiCell.ue22.ipv4.ip packetDropNoInterfaceFound:vector(packetBytes):mean -nan
scalar MultiCell.ue22.ipv4.ip packetDropNoInterfaceFound:vector(packetBytes):stddev nan
scalar MultiCell.ue22.ipv4.ip packetDropNoInterfaceFound:vector(packetBytes):min inf
scalar MultiCell.ue22.ipv4.ip packetDropNoInterfaceFound:vector(packetBytes):max -inf
scalar MultiCell.ue22.ipv4.ip packetDropNoInterfaceFound:vector(packetBytes):starttime nan
scalar MultiCell.ue22.ipv4.ip packetDropNoInterfaceFound:vector(packetBytes):endtime nan
scalar MultiCell.ue22.ipv4.ip packetDropNoRouteFound:vector(packetBytes):count 0
scalar MultiCell.ue22.ipv4.ip packetDropNoRouteFound:vector(packetBytes):sum 0
scalar MultiCell.ue22.ipv4.ip packetDropNoRouteFound:vector(packetBytes):sumweights 0
scalar MultiCell.ue22.ipv4.ip packetDropNoRouteFound:vector(packetBytes):mean -nan
scalar MultiCell.ue22.ipv4.ip packetDropNoRouteFound:vector(packetBytes):stddev nan
scalar MultiCell.ue22.ipv4.ip packetDropNoRouteFound:vector(packetBytes):min inf
scalar MultiCell.ue22.ipv4.ip packetDropNoRouteFound:vector(packetBytes):max -inf
scalar MultiCell.ue22.ipv4.ip packetDropNoRouteFound:vector(packetBytes):starttime nan
scalar MultiCell.ue22.ipv4.ip packetDropNoRouteFound:vector(packetBytes):endtime nan
scalar MultiCell.ue22.ipv4.ip packetDropUndefined:vector(packetBytes):count 0
scalar MultiCell.ue22.ipv4.ip packetDropUndefined:vector(packetBytes):sum 0
scalar MultiCell.ue22.ipv4.ip packetDropUndefined:vector(packetBytes):sumweights 0
scalar MultiCell.ue22.ipv4.ip packetDropUndefined:vector(packetBytes):mean -nan
scalar MultiCell.ue22.ipv4.ip packetDropUndefined:vector(packetBytes):stddev nan
scalar MultiCell.ue22.ipv4.ip packetDropUndefined:vector(packetBytes):min inf
scalar MultiCell.ue22.ipv4.ip packetDropUndefined:vector(packetBytes):max -inf
scalar MultiCell.ue22.ipv4.ip packetDropUndefined:vector(packetBytes):starttime nan
scalar MultiCell.ue22.ipv4.ip packetDropUndefined:vector(packetBytes):endtime nan
scalar MultiCell.ue22.ipv4.arp arpRequestSent:vector(packetBytes):count 0
scalar MultiCell.ue22.ipv4.arp arpRequestSent:vector(packetBytes):sum 0
scalar MultiCell.ue22.ipv4.arp arpRequestSent:vector(packetBytes):sumweights 0
scalar MultiCell.ue22.ipv4.arp arpRequestSent:vector(packetBytes):mean -nan
scalar MultiCell.ue22.ipv4.arp arpRequestSent:vector(packetBytes):stddev nan
scalar MultiCell.ue22.ipv4.arp arpRequestSent:vector(packetBytes):min inf
scalar MultiCell.ue22.ipv4.arp arpRequestSent:vector(packetBytes):max -inf
scalar MultiCell.ue22.ipv4.arp arpRequestSent:vector(packetBytes):starttime nan
scalar MultiCell.ue22.ipv4.arp arpRequestSent:vector(packetBytes):endtime nan
scalar MultiCell.ue22.ipv4.arp arpReplySent:vector(packetBytes):count 0
scalar MultiCell.ue22.ipv4.arp arpReplySent:vector(packetBytes):sum 0
scalar MultiCell.ue22.ipv4.arp arpReplySent:vector(packetBytes):sumweights 0
scalar MultiCell.ue22.ipv4.arp arpReplySent:vector(packetBytes):mean -nan
scalar MultiCell.ue22.ipv4.arp arpReplySent:vector(packetBytes):stddev nan
scalar MultiCell.ue22.ipv4.arp arpReplySent:vector(packetBytes):min inf
scalar MultiCell.ue22.ipv4.arp arpReplySent:vector(packetBytes):max -inf
scalar MultiCell.ue22.ipv4.arp arpReplySent:vector(packetBytes):starttime nan
scalar MultiCell.ue22.ipv4.arp arpReplySent:vector(packetBytes):endtime nan
scalar MultiCell.ue22.udp packetSent:vector(packetBytes):count 0
scalar MultiCell.ue22.udp packetSent:vector(packetBytes):sum 0
scalar MultiCell.ue22.udp packetSent:vector(packetBytes):sumweights 0
scalar MultiCell.ue22.udp packetSent:vector(packetBytes):mean -nan
scalar MultiCell.ue22.udp packetSent:vector(packetBytes):stddev nan
scalar MultiCell.ue22.udp packetSent:vector(packetBytes):min inf
scalar MultiCell.ue22.udp packetSent:vector(packetBytes):max -inf
scalar MultiCell.ue22.udp packetSent:vector(packetBytes):starttime nan
scalar MultiCell.ue22.udp packetSent:vector(packetBytes):endtime nan
scalar MultiCell.ue22.udp packetReceived:vector(packetBytes):count 0
scalar MultiCell.ue22.udp packetReceived:vector(packetBytes):sum 0
scalar MultiCell.ue22.udp packetReceived:vector(packetBytes):sumweights 0
scalar MultiCell.ue22.udp packetReceived:vector(packetBytes):mean -nan
scalar MultiCell.ue22.udp packetReceived:vector(packetBytes):stddev nan
scalar MultiCell.ue22.udp packetReceived:vector(packetBytes):min inf
scalar MultiCell.ue22.udp packetReceived:vector(packetBytes):max -inf
scalar MultiCell.ue22.udp packetReceived:vector(packetBytes):starttime nan
scalar MultiCell.ue22.udp packetReceived:vector(packetBytes):endtime nan
scalar MultiCell.ue22.udp passedUpPk:vector(count):count 0
scalar MultiCell.ue22.udp passedUpPk:vector(count):sum 0
scalar MultiCell.ue22.udp passedUpPk:vector(count):sumweights 0
scalar MultiCell.ue22.udp passedUpPk:vector(count):mean -nan
scalar MultiCell.ue22.udp passedUpPk:vector(count):stddev nan
scalar MultiCell.ue22.udp passedUpPk:vector(count):min inf
scalar MultiCell.ue22.udp passedUpPk:vector(count):max -inf
scalar MultiCell.ue22.udp passedUpPk:vector(count):starttime nan
scalar MultiCell.ue22.udp passedUpPk:vector(count):endtime nan
scalar MultiCell.ue22.udp droppedPkWrongPort:vector(count):count 0
scalar MultiCell.ue22.udp droppedPkWrongPort:vector(count):sum 0
scalar MultiCell.ue22.udp droppedPkWrongPort:vector(count):sumweights 0
scalar MultiCell.ue22.udp droppedPkWrongPort:vector(count):mean -nan
scalar MultiCell.ue22.udp droppedPkWrongPort:vector(count):stddev nan
scalar MultiCell.ue22.udp droppedPkWrongPort:vector(count):min inf
scalar MultiCell.ue22.udp droppedPkWrongPort:vector(count):max -inf
scalar MultiCell.ue22.udp droppedPkWrongPort:vector(count):starttime nan
scalar MultiCell.ue22.udp droppedPkWrongPort:vector(count):endtime nan
scalar MultiCell.ue22.udp droppedPkBadChecksum:vector(count):count 0
scalar MultiCell.ue22.udp droppedPkBadChecksum:vector(count):sum 0
scalar MultiCell.ue22.udp droppedPkBadChecksum:vector(count):sumweights 0
scalar MultiCell.ue22.udp droppedPkBadChecksum:vector(count):mean -nan
scalar MultiCell.ue22.udp droppedPkBadChecksum:vector(count):stddev nan
scalar MultiCell.ue22.udp droppedPkBadChecksum:vector(count):min inf
scalar MultiCell.ue22.udp droppedPkBadChecksum:vector(count):max -inf
scalar MultiCell.ue22.udp droppedPkBadChecksum:vector(count):starttime nan
scalar MultiCell.ue22.udp droppedPkBadChecksum:vector(count):endtime nan
scalar MultiCell.ue22.app[0] packetReceived:vector(packetBytes):count 0
scalar MultiCell.ue22.app[0] packetReceived:vector(packetBytes):sum 0
scalar MultiCell.ue22.app[0] packetReceived:vector(packetBytes):sumweights 0
scalar MultiCell.ue22.app[0] packetReceived:vector(packetBytes):mean -nan
scalar MultiCell.ue22.app[0] packetReceived:vector(packetBytes):stddev nan
scalar MultiCell.ue22.app[0] packetReceived:vector(packetBytes):min inf
scalar MultiCell.ue22.app[0] packetReceived:vector(packetBytes):max -inf
scalar MultiCell.ue22.app[0] packetReceived:vector(packetBytes):starttime nan
scalar MultiCell.ue22.app[0] packetReceived:vector(packetBytes):endtime nan
scalar MultiCell.ue22.app[0] throughput:vector:count 0
scalar MultiCell.ue22.app[0] throughput:vector:sum 0
scalar MultiCell.ue22.app[0] throughput:vector:sumweights 0
scalar MultiCell.ue22.app[0] throughput:vector:mean -nan
scalar MultiCell.ue22.app[0] throughput:vector:stddev nan
scalar MultiCell.ue22.app[0] throughput:vector:min inf
scalar MultiCell.ue22.app[0] throughput:vector:max -inf
scalar MultiCell.ue22.app[0] throughput:vector:starttime nan
scalar MultiCell.ue22.app[0] throughput:vector:endtime nan
scalar MultiCell.ue22.app[0] endToEndDelay:vector:count 0
scalar MultiCell.ue22.app[0] endToEndDelay:vector:sum 0
scalar MultiCell.ue22.app[0] endToEndDelay:vector:sumweights 0
scalar MultiCell.ue22.app[0] endToEndDelay:vector:mean -nan
scalar MultiCell.ue22.app[0] endToEndDelay:vector:stddev nan
scalar MultiCell.ue22.app[0] endToEndDelay:vector:min inf
scalar MultiCell.ue22.app[0] endToEndDelay:vector:max -inf
scalar MultiCell.ue22.app[0] endToEndDelay:vector:starttime nan
scalar MultiCell.ue22.app[0] endToEndDelay:vector:endtime nan
scalar MultiCell.ue22.app[1] voIPFrameDelay:vector:count 0
scalar MultiCell.ue22.app[1] voIPFrameDelay:vector:sum 0
scalar MultiCell.ue22.app[1] voIPFrameDelay:vector:sumweights 0
scalar MultiCell.ue22.app[1] voIPFrameDelay:vector:mean -nan
scalar MultiCell.ue22.app[1] voIPFrameDelay:vector:stddev nan
scalar MultiCell.ue22.app[1] voIPFrameDelay:vector:min inf
scalar MultiCell.ue22.app[1] voIPFrameDelay:vector:max -inf
scalar MultiCell.ue22.app[1] voIPFrameDelay:vector:starttime nan
scalar MultiCell.ue22.app[1] voIPFrameDelay:vector:endtime nan
scalar MultiCell.ue22.app[1] voIPReceivedThroughput:vector:count 0
scalar MultiCell.ue22.app[1] voIPReceivedThroughput:vector:sum 0
scalar MultiCell.ue22.app[1] voIPReceivedThroughput:vector:sumweights 0
scalar MultiCell.ue22.app[1] voIPReceivedThroughput:vector:mean -nan
scalar MultiCell.ue22.app[1] voIPReceivedThroughput:vector:stddev nan
scalar MultiCell.ue22.app[1] voIPReceivedThroughput:vector:min inf
scalar MultiCell.ue22.app[1] voIPReceivedThroughput:vector:max -inf
scalar MultiCell.ue22.app[1] voIPReceivedThroughput:vector:starttime nan
scalar MultiCell.ue22.app[1] voIPReceivedThroughput:vector:endtime nan

