version 3
run CBR-DL-0-20260710-11:28:25-707426
attr configname CBR-DL
attr datetime 20260710-11:28:25
attr datetimef 20260710-112825
attr experiment CBR-DL
attr inifile omnetpp.ini
attr iterationvars "$cbrEnd=20s, $numUEs=1"
attr iterationvarsd cbrEnd=20s/numUEs=1
attr iterationvarsf cbrEnd=20s,numUEs=1-
attr measurement "$cbrEnd=20s, $numUEs=1"
attr network simu5g.simulations.lte.networks.SingleCell
attr processid 707426
attr repetition 0
attr replication #0
attr resultdir results
attr runnumber 0
attr seedset 0
itervar cbrEnd 20s
itervar numUEs 1
config **.param-recording false
config image-path /home/andras/projects/Simu5G-fork/simu5g-fork/images
config output-scalar-file results/omnetpp.ini-CBR-DL-#0.sca
config output-scalar-precision 17
config output-vector-file results/omnetpp.ini-CBR-DL-#0.vec
config output-vector-precision 17
config record-eventlog false
config sim-time-limit 20s
config sim-time-limit 20s
config network simu5g.simulations.lte.networks.SingleCell
config description "Constant BitRate (CBR) downlink scenario"
config **.ue[*].numApps 1
config **.server.numApps 1
config **.numUe 1
config **.mobility.constraintAreaMinX 300m
config **.mobility.constraintAreaMinY 200m
config **.mobility.constraintAreaMaxX 800m
config **.mobility.constraintAreaMaxY 400m
config **.ue[*].servingNodeId 1
config **.ue[*].mobility.initFromDisplayString false
config **.ue[*].app[*].typename CbrReceiver
config **.ue[*].app[*].localPort 3000
config **.server.app[*].typename CbrSender
config **.server.app[*].localPort 3000+ancestorIndex(0)
config **.server.app[*].destAddress "\"ue[\"+string(ancestorIndex(0))+\"]\""
config **.server.app[*].destPort 3000
config **.server.app[*].startTime "uniform(0s, 0.02s)"
config **.server.app[*].finishTime 20s
config **.server.app[*].samplingTime 0.02s
config **.server.app[*].packetSize 100B
config sim-time-limit 20s
config output-scalar-file results/CBR-DL/0.sca
config output-vector-file results/CBR-DL/0.vec
config seed-set 0
config **.vector-recording false
config **.mobility.constraintAreaMinZ 0m
config **.mobility.constraintAreaMaxZ 0m
config **.mobility.initFromDisplayString true
config **.numBands 6
config **.ueTxPower 26dBm
config **.eNodeBTxPower 40dBm
config *.configurator.config "xmldoc(\"./demo.xml\")"

scalar SingleCell.server.lo[0].lo rcvdPkFromHl:count 0
scalar SingleCell.server.lo[0].lo rcvdPkFromHl:sum(packetBytes) 0
scalar SingleCell.server.lo[0].lo passedUpPk:count 0
scalar SingleCell.server.lo[0].lo passedUpPk:sum(packetBytes) 0
scalar SingleCell.server.lo[0] packetDropInterfaceDown:count 0
scalar SingleCell.server.lo[0] packetDropInterfaceDown:sum(packetBytes) 0
scalar SingleCell.server.lo[0] packetDropNoCarrier:count 0
scalar SingleCell.server.lo[0] packetDropNoCarrier:sum(packetBytes) 0
scalar SingleCell.server.ppp[0].queue queueLength:last 0
scalar SingleCell.server.ppp[0].queue queueLength:max 0
scalar SingleCell.server.ppp[0].queue queueLength:timeavg 0
scalar SingleCell.server.ppp[0].queue queueBitLength:last 0
scalar SingleCell.server.ppp[0].queue queueBitLength:max 0
scalar SingleCell.server.ppp[0].queue queueBitLength:timeavg 0
scalar SingleCell.server.ppp[0].queue outgoingPackets:count 1000
scalar SingleCell.server.ppp[0].queue outgoingPacketLengths:sum 1024000
scalar SingleCell.server.ppp[0].queue incomingPackets:count 1000
scalar SingleCell.server.ppp[0].queue incomingPacketLengths:sum 1024000
scalar SingleCell.server.ppp[0].queue droppedPacketsQueueOverflow:count 0
scalar SingleCell.server.ppp[0].queue droppedPacketLengthsQueueOverflow:sum 0
scalar SingleCell.server.ppp[0].ppp transmissionState:timeavg 5.4000000000001304e-06
scalar SingleCell.server.ppp[0].ppp rxPkOk:count 0
scalar SingleCell.server.ppp[0].ppp rxPkOk:sum(packetBytes) 0
scalar SingleCell.server.ppp[0].ppp txPk:count 1000
scalar SingleCell.server.ppp[0].ppp txPk:sum(packetBytes) 135000
scalar SingleCell.server.ppp[0].ppp rcvdPkFromHl:count 1000
scalar SingleCell.server.ppp[0].ppp rcvdPkFromHl:sum(packetBytes) 128000
scalar SingleCell.server.ppp[0].ppp passedUpPk:count 0
scalar SingleCell.server.ppp[0].ppp passedUpPk:sum(packetBytes) 0
scalar SingleCell.server.ppp[0].ppp packetDropIncorrectlyReceived:count 0
scalar SingleCell.server.ppp[0].ppp packetDropIncorrectlyReceived:sum(packetBytes) 0
scalar SingleCell.server.ppp[0].ppp packetDropInterfaceDown:count 0
scalar SingleCell.server.ppp[0].ppp packetDropInterfaceDown:sum(packetBytes) 0
scalar SingleCell.server.ppp[0] packetDropInterfaceDown:count 0
scalar SingleCell.server.ppp[0] packetDropInterfaceDown:sum(packetBytes) 0
scalar SingleCell.server.ppp[0] packetDropNoCarrier:count 0
scalar SingleCell.server.ppp[0] packetDropNoCarrier:sum(packetBytes) 0
scalar SingleCell.server.ipv4.ip packetDropAddressResolutionFailed:count 0
scalar SingleCell.server.ipv4.ip packetDropAddressResolutionFailed:sum(packetBytes) 0
scalar SingleCell.server.ipv4.ip packetDropHopLimitReached:count 0
scalar SingleCell.server.ipv4.ip packetDropHopLimitReached:sum(packetBytes) 0
scalar SingleCell.server.ipv4.ip packetDropForwardingDisabled:count 0
scalar SingleCell.server.ipv4.ip packetDropForwardingDisabled:sum(packetBytes) 0
scalar SingleCell.server.ipv4.ip packetDropNoInterfaceFound:count 0
scalar SingleCell.server.ipv4.ip packetDropNoInterfaceFound:sum(packetBytes) 0
scalar SingleCell.server.ipv4.ip packetDropNoRouteFound:count 0
scalar SingleCell.server.ipv4.ip packetDropNoRouteFound:sum(packetBytes) 0
scalar SingleCell.server.ipv4.ip packetDropUndefined:count 0
scalar SingleCell.server.ipv4.ip packetDropUndefined:sum(packetBytes) 0
scalar SingleCell.server.ipv4.arp arpResolutionFailed:count 0
scalar SingleCell.server.ipv4.arp arpResolutionCompleted:count 0
scalar SingleCell.server.ipv4.arp arpResolutionInitiated:count 0
scalar SingleCell.server.ipv4.arp arpReplySent:count 0
scalar SingleCell.server.ipv4.arp arpReplySent:sum(packetBytes) 0
scalar SingleCell.server.ipv4.arp arpRequestSent:count 0
scalar SingleCell.server.ipv4.arp arpRequestSent:sum(packetBytes) 0
scalar SingleCell.server.udp packetReceived:count 0
scalar SingleCell.server.udp packetReceived:sum(packetBytes) 0
scalar SingleCell.server.udp packetSent:count 1000
scalar SingleCell.server.udp packetSent:sum(packetBytes) 108000
scalar SingleCell.server.udp passedUpPk:count 0
scalar SingleCell.server.udp droppedPkWrongPort:count 0
scalar SingleCell.server.udp droppedPkBadChecksum:count 0
scalar SingleCell.server.app[0] cbrGeneratedBytes:mean 100
scalar SingleCell.server.app[0] cbrGeneratedBytes:last(sumPerDuration) 5000.9425852886643
scalar SingleCell.server.app[0] cbrGeneratedThroughput:simu5g_rateavg 5000
scalar SingleCell.router.lo[0].lo rcvdPkFromHl:count 0
scalar SingleCell.router.lo[0].lo rcvdPkFromHl:sum(packetBytes) 0
scalar SingleCell.router.lo[0].lo passedUpPk:count 0
scalar SingleCell.router.lo[0].lo passedUpPk:sum(packetBytes) 0
scalar SingleCell.router.lo[0] packetDropInterfaceDown:count 0
scalar SingleCell.router.lo[0] packetDropInterfaceDown:sum(packetBytes) 0
scalar SingleCell.router.lo[0] packetDropNoCarrier:count 0
scalar SingleCell.router.lo[0] packetDropNoCarrier:sum(packetBytes) 0
scalar SingleCell.router.ppp[0].queue queueLength:last 0
scalar SingleCell.router.ppp[0].queue queueLength:max 0
scalar SingleCell.router.ppp[0].queue queueLength:timeavg 0
scalar SingleCell.router.ppp[0].queue queueBitLength:last 0
scalar SingleCell.router.ppp[0].queue queueBitLength:max 0
scalar SingleCell.router.ppp[0].queue queueBitLength:timeavg 0
scalar SingleCell.router.ppp[0].queue outgoingPackets:count 0
scalar SingleCell.router.ppp[0].queue outgoingPacketLengths:sum 0
scalar SingleCell.router.ppp[0].queue incomingPackets:count 0
scalar SingleCell.router.ppp[0].queue incomingPacketLengths:sum 0
scalar SingleCell.router.ppp[0].queue droppedPacketsQueueOverflow:count 0
scalar SingleCell.router.ppp[0].queue droppedPacketLengthsQueueOverflow:sum 0
scalar SingleCell.router.ppp[0].ppp transmissionState:timeavg 0
scalar SingleCell.router.ppp[0].ppp rxPkOk:count 1000
scalar SingleCell.router.ppp[0].ppp rxPkOk:sum(packetBytes) 135000
scalar SingleCell.router.ppp[0].ppp txPk:count 0
scalar SingleCell.router.ppp[0].ppp txPk:sum(packetBytes) 0
scalar SingleCell.router.ppp[0].ppp rcvdPkFromHl:count 0
scalar SingleCell.router.ppp[0].ppp rcvdPkFromHl:sum(packetBytes) 0
scalar SingleCell.router.ppp[0].ppp passedUpPk:count 1000
scalar SingleCell.router.ppp[0].ppp passedUpPk:sum(packetBytes) 128000
scalar SingleCell.router.ppp[0].ppp packetDropIncorrectlyReceived:count 0
scalar SingleCell.router.ppp[0].ppp packetDropIncorrectlyReceived:sum(packetBytes) 0
scalar SingleCell.router.ppp[0].ppp packetDropInterfaceDown:count 0
scalar SingleCell.router.ppp[0].ppp packetDropInterfaceDown:sum(packetBytes) 0
scalar SingleCell.router.ppp[0] packetDropInterfaceDown:count 0
scalar SingleCell.router.ppp[0] packetDropInterfaceDown:sum(packetBytes) 0
scalar SingleCell.router.ppp[0] packetDropNoCarrier:count 0
scalar SingleCell.router.ppp[0] packetDropNoCarrier:sum(packetBytes) 0
scalar SingleCell.router.ppp[1].queue queueLength:last 0
scalar SingleCell.router.ppp[1].queue queueLength:max 0
scalar SingleCell.router.ppp[1].queue queueLength:timeavg 0
scalar SingleCell.router.ppp[1].queue queueBitLength:last 0
scalar SingleCell.router.ppp[1].queue queueBitLength:max 0
scalar SingleCell.router.ppp[1].queue queueBitLength:timeavg 0
scalar SingleCell.router.ppp[1].queue outgoingPackets:count 1000
scalar SingleCell.router.ppp[1].queue outgoingPacketLengths:sum 1024000
scalar SingleCell.router.ppp[1].queue incomingPackets:count 1000
scalar SingleCell.router.ppp[1].queue incomingPacketLengths:sum 1024000
scalar SingleCell.router.ppp[1].queue droppedPacketsQueueOverflow:count 0
scalar SingleCell.router.ppp[1].queue droppedPacketLengthsQueueOverflow:sum 0
scalar SingleCell.router.ppp[1].ppp transmissionState:timeavg 5.4000000000001304e-06
scalar SingleCell.router.ppp[1].ppp rxPkOk:count 0
scalar SingleCell.router.ppp[1].ppp rxPkOk:sum(packetBytes) 0
scalar SingleCell.router.ppp[1].ppp txPk:count 1000
scalar SingleCell.router.ppp[1].ppp txPk:sum(packetBytes) 135000
scalar SingleCell.router.ppp[1].ppp rcvdPkFromHl:count 1000
scalar SingleCell.router.ppp[1].ppp rcvdPkFromHl:sum(packetBytes) 128000
scalar SingleCell.router.ppp[1].ppp passedUpPk:count 0
scalar SingleCell.router.ppp[1].ppp passedUpPk:sum(packetBytes) 0
scalar SingleCell.router.ppp[1].ppp packetDropIncorrectlyReceived:count 0
scalar SingleCell.router.ppp[1].ppp packetDropIncorrectlyReceived:sum(packetBytes) 0
scalar SingleCell.router.ppp[1].ppp packetDropInterfaceDown:count 0
scalar SingleCell.router.ppp[1].ppp packetDropInterfaceDown:sum(packetBytes) 0
scalar SingleCell.router.ppp[1] packetDropInterfaceDown:count 0
scalar SingleCell.router.ppp[1] packetDropInterfaceDown:sum(packetBytes) 0
scalar SingleCell.router.ppp[1] packetDropNoCarrier:count 0
scalar SingleCell.router.ppp[1] packetDropNoCarrier:sum(packetBytes) 0
scalar SingleCell.router.ipv4.ip packetDropAddressResolutionFailed:count 0
scalar SingleCell.router.ipv4.ip packetDropAddressResolutionFailed:sum(packetBytes) 0
scalar SingleCell.router.ipv4.ip packetDropHopLimitReached:count 0
scalar SingleCell.router.ipv4.ip packetDropHopLimitReached:sum(packetBytes) 0
scalar SingleCell.router.ipv4.ip packetDropForwardingDisabled:count 0
scalar SingleCell.router.ipv4.ip packetDropForwardingDisabled:sum(packetBytes) 0
scalar SingleCell.router.ipv4.ip packetDropNoInterfaceFound:count 0
scalar SingleCell.router.ipv4.ip packetDropNoInterfaceFound:sum(packetBytes) 0
scalar SingleCell.router.ipv4.ip packetDropNoRouteFound:count 0
scalar SingleCell.router.ipv4.ip packetDropNoRouteFound:sum(packetBytes) 0
scalar SingleCell.router.ipv4.ip packetDropUndefined:count 0
scalar SingleCell.router.ipv4.ip packetDropUndefined:sum(packetBytes) 0
scalar SingleCell.router.ipv4.arp arpResolutionFailed:count 0
scalar SingleCell.router.ipv4.arp arpResolutionCompleted:count 0
scalar SingleCell.router.ipv4.arp arpResolutionInitiated:count 0
scalar SingleCell.router.ipv4.arp arpReplySent:count 0
scalar SingleCell.router.ipv4.arp arpReplySent:sum(packetBytes) 0
scalar SingleCell.router.ipv4.arp arpRequestSent:count 0
scalar SingleCell.router.ipv4.arp arpRequestSent:sum(packetBytes) 0
scalar SingleCell.pgw.lo[0].lo rcvdPkFromHl:count 0
scalar SingleCell.pgw.lo[0].lo rcvdPkFromHl:sum(packetBytes) 0
scalar SingleCell.pgw.lo[0].lo passedUpPk:count 0
scalar SingleCell.pgw.lo[0].lo passedUpPk:sum(packetBytes) 0
scalar SingleCell.pgw.lo[0] packetDropInterfaceDown:count 0
scalar SingleCell.pgw.lo[0] packetDropInterfaceDown:sum(packetBytes) 0
scalar SingleCell.pgw.lo[0] packetDropNoCarrier:count 0
scalar SingleCell.pgw.lo[0] packetDropNoCarrier:sum(packetBytes) 0
scalar SingleCell.pgw.ppp[0].queue queueLength:last 0
scalar SingleCell.pgw.ppp[0].queue queueLength:max 0
scalar SingleCell.pgw.ppp[0].queue queueLength:timeavg 0
scalar SingleCell.pgw.ppp[0].queue queueBitLength:last 0
scalar SingleCell.pgw.ppp[0].queue queueBitLength:max 0
scalar SingleCell.pgw.ppp[0].queue queueBitLength:timeavg 0
scalar SingleCell.pgw.ppp[0].queue outgoingPackets:count 1000
scalar SingleCell.pgw.ppp[0].queue outgoingPacketLengths:sum 1312000
scalar SingleCell.pgw.ppp[0].queue incomingPackets:count 1000
scalar SingleCell.pgw.ppp[0].queue incomingPacketLengths:sum 1312000
scalar SingleCell.pgw.ppp[0].queue droppedPacketsQueueOverflow:count 0
scalar SingleCell.pgw.ppp[0].queue droppedPacketLengthsQueueOverflow:sum 0
scalar SingleCell.pgw.ppp[0].ppp transmissionState:timeavg 6.8400000000000616e-06
scalar SingleCell.pgw.ppp[0].ppp rxPkOk:count 0
scalar SingleCell.pgw.ppp[0].ppp rxPkOk:sum(packetBytes) 0
scalar SingleCell.pgw.ppp[0].ppp txPk:count 1000
scalar SingleCell.pgw.ppp[0].ppp txPk:sum(packetBytes) 171000
scalar SingleCell.pgw.ppp[0].ppp rcvdPkFromHl:count 1000
scalar SingleCell.pgw.ppp[0].ppp rcvdPkFromHl:sum(packetBytes) 164000
scalar SingleCell.pgw.ppp[0].ppp passedUpPk:count 0
scalar SingleCell.pgw.ppp[0].ppp passedUpPk:sum(packetBytes) 0
scalar SingleCell.pgw.ppp[0].ppp packetDropIncorrectlyReceived:count 0
scalar SingleCell.pgw.ppp[0].ppp packetDropIncorrectlyReceived:sum(packetBytes) 0
scalar SingleCell.pgw.ppp[0].ppp packetDropInterfaceDown:count 0
scalar SingleCell.pgw.ppp[0].ppp packetDropInterfaceDown:sum(packetBytes) 0
scalar SingleCell.pgw.ppp[0] packetDropInterfaceDown:count 0
scalar SingleCell.pgw.ppp[0] packetDropInterfaceDown:sum(packetBytes) 0
scalar SingleCell.pgw.ppp[0] packetDropNoCarrier:count 0
scalar SingleCell.pgw.ppp[0] packetDropNoCarrier:sum(packetBytes) 0
scalar SingleCell.pgw.ipv4.ip packetDropAddressResolutionFailed:count 0
scalar SingleCell.pgw.ipv4.ip packetDropAddressResolutionFailed:sum(packetBytes) 0
scalar SingleCell.pgw.ipv4.ip packetDropHopLimitReached:count 0
scalar SingleCell.pgw.ipv4.ip packetDropHopLimitReached:sum(packetBytes) 0
scalar SingleCell.pgw.ipv4.ip packetDropForwardingDisabled:count 0
scalar SingleCell.pgw.ipv4.ip packetDropForwardingDisabled:sum(packetBytes) 0
scalar SingleCell.pgw.ipv4.ip packetDropNoInterfaceFound:count 0
scalar SingleCell.pgw.ipv4.ip packetDropNoInterfaceFound:sum(packetBytes) 0
scalar SingleCell.pgw.ipv4.ip packetDropNoRouteFound:count 0
scalar SingleCell.pgw.ipv4.ip packetDropNoRouteFound:sum(packetBytes) 0
scalar SingleCell.pgw.ipv4.ip packetDropUndefined:count 0
scalar SingleCell.pgw.ipv4.ip packetDropUndefined:sum(packetBytes) 0
scalar SingleCell.pgw.ipv4.arp arpResolutionFailed:count 0
scalar SingleCell.pgw.ipv4.arp arpResolutionCompleted:count 0
scalar SingleCell.pgw.ipv4.arp arpResolutionInitiated:count 0
scalar SingleCell.pgw.ipv4.arp arpReplySent:count 0
scalar SingleCell.pgw.ipv4.arp arpReplySent:sum(packetBytes) 0
scalar SingleCell.pgw.ipv4.arp arpRequestSent:count 0
scalar SingleCell.pgw.ipv4.arp arpRequestSent:sum(packetBytes) 0
scalar SingleCell.pgw.pppIf.queue queueLength:last 0
scalar SingleCell.pgw.pppIf.queue queueLength:max 0
scalar SingleCell.pgw.pppIf.queue queueLength:timeavg 0
scalar SingleCell.pgw.pppIf.queue queueBitLength:last 0
scalar SingleCell.pgw.pppIf.queue queueBitLength:max 0
scalar SingleCell.pgw.pppIf.queue queueBitLength:timeavg 0
scalar SingleCell.pgw.pppIf.queue outgoingPackets:count 0
scalar SingleCell.pgw.pppIf.queue outgoingPacketLengths:sum 0
scalar SingleCell.pgw.pppIf.queue incomingPackets:count 0
scalar SingleCell.pgw.pppIf.queue incomingPacketLengths:sum 0
scalar SingleCell.pgw.pppIf.queue droppedPacketsQueueOverflow:count 0
scalar SingleCell.pgw.pppIf.queue droppedPacketLengthsQueueOverflow:sum 0
scalar SingleCell.pgw.pppIf.ppp transmissionState:timeavg 0
scalar SingleCell.pgw.pppIf.ppp rxPkOk:count 1000
scalar SingleCell.pgw.pppIf.ppp rxPkOk:sum(packetBytes) 135000
scalar SingleCell.pgw.pppIf.ppp txPk:count 0
scalar SingleCell.pgw.pppIf.ppp txPk:sum(packetBytes) 0
scalar SingleCell.pgw.pppIf.ppp rcvdPkFromHl:count 0
scalar SingleCell.pgw.pppIf.ppp rcvdPkFromHl:sum(packetBytes) 0
scalar SingleCell.pgw.pppIf.ppp passedUpPk:count 1000
scalar SingleCell.pgw.pppIf.ppp passedUpPk:sum(packetBytes) 128000
scalar SingleCell.pgw.pppIf.ppp packetDropIncorrectlyReceived:count 0
scalar SingleCell.pgw.pppIf.ppp packetDropIncorrectlyReceived:sum(packetBytes) 0
scalar SingleCell.pgw.pppIf.ppp packetDropInterfaceDown:count 0
scalar SingleCell.pgw.pppIf.ppp packetDropInterfaceDown:sum(packetBytes) 0
scalar SingleCell.pgw.pppIf packetDropInterfaceDown:count 0
scalar SingleCell.pgw.pppIf packetDropInterfaceDown:sum(packetBytes) 0
scalar SingleCell.pgw.pppIf packetDropNoCarrier:count 0
scalar SingleCell.pgw.pppIf packetDropNoCarrier:sum(packetBytes) 0
scalar SingleCell.pgw.udp packetReceived:count 0
scalar SingleCell.pgw.udp packetReceived:sum(packetBytes) 0
scalar SingleCell.pgw.udp packetSent:count 1000
scalar SingleCell.pgw.udp packetSent:sum(packetBytes) 144000
scalar SingleCell.pgw.udp passedUpPk:count 0
scalar SingleCell.pgw.udp droppedPkWrongPort:count 0
scalar SingleCell.pgw.udp droppedPkBadChecksum:count 0
scalar SingleCell.eNB.cellularNic.pdcp sentPacketToLowerLayer:count 1000
scalar SingleCell.eNB.cellularNic.pdcp sentPacketToLowerLayer:sum(packetBytes) 129000
scalar SingleCell.eNB.cellularNic.pdcp sentPacketToUpperLayer:count 0
scalar SingleCell.eNB.cellularNic.pdcp sentPacketToUpperLayer:sum(packetBytes) 0
scalar SingleCell.eNB.cellularNic.pdcp receivedPacketFromLowerLayer:count 0
scalar SingleCell.eNB.cellularNic.pdcp receivedPacketFromLowerLayer:sum(packetBytes) 0
scalar SingleCell.eNB.cellularNic.pdcp receivedPacketFromUpperLayer:count 1000
scalar SingleCell.eNB.cellularNic.pdcp receivedPacketFromUpperLayer:sum(packetBytes) 128000
scalar SingleCell.eNB.cellularNic.rlc.tm rlcPacketLossUl:mean -nan
scalar SingleCell.eNB.cellularNic.rlc.tm rlcPacketLossUl:sum 0
scalar SingleCell.eNB.cellularNic.rlc.tm rlcPacketLossDl:mean -nan
scalar SingleCell.eNB.cellularNic.rlc.tm rlcPacketLossDl:sum 0
scalar SingleCell.eNB.cellularNic.rlc.tm sentPacketToLowerLayer:count 0
scalar SingleCell.eNB.cellularNic.rlc.tm sentPacketToLowerLayer:sum(packetBytes) 0
scalar SingleCell.eNB.cellularNic.rlc.tm sentPacketToUpperLayer:count 0
scalar SingleCell.eNB.cellularNic.rlc.tm sentPacketToUpperLayer:sum(packetBytes) 0
scalar SingleCell.eNB.cellularNic.rlc.tm receivedPacketFromLowerLayer:count 0
scalar SingleCell.eNB.cellularNic.rlc.tm receivedPacketFromLowerLayer:sum(packetBytes) 0
scalar SingleCell.eNB.cellularNic.rlc.tm receivedPacketFromUpperLayer:count 0
scalar SingleCell.eNB.cellularNic.rlc.tm receivedPacketFromUpperLayer:sum(packetBytes) 0
scalar SingleCell.eNB.cellularNic.rlc.um rlcCellThroughputUl:simu5g_rateavg -nan
scalar SingleCell.eNB.cellularNic.rlc.um rlcCellThroughputDl:simu5g_rateavg 6447.594196400767
scalar SingleCell.eNB.cellularNic.rlc.um rlcPduThroughputUl:simu5g_rateavg -nan
scalar SingleCell.eNB.cellularNic.rlc.um rlcPduThroughputDl:simu5g_rateavg -nan
scalar SingleCell.eNB.cellularNic.rlc.um rlcPduDelayUl:mean -nan
scalar SingleCell.eNB.cellularNic.rlc.um rlcPduDelayDl:mean -nan
scalar SingleCell.eNB.cellularNic.rlc.um rlcThroughputUl:simu5g_rateavg -nan
scalar SingleCell.eNB.cellularNic.rlc.um rlcThroughputDl:simu5g_rateavg -nan
scalar SingleCell.eNB.cellularNic.rlc.um rlcDelayUl:mean -nan
scalar SingleCell.eNB.cellularNic.rlc.um rlcDelayDl:mean -nan
scalar SingleCell.eNB.cellularNic.rlc.um sentPacketToLowerLayer:count 1000
scalar SingleCell.eNB.cellularNic.rlc.um sentPacketToLowerLayer:sum(packetBytes) 131000
scalar SingleCell.eNB.cellularNic.rlc.um sentPacketToUpperLayer:count 0
scalar SingleCell.eNB.cellularNic.rlc.um sentPacketToUpperLayer:sum(packetBytes) 0
scalar SingleCell.eNB.cellularNic.rlc.um receivedPacketFromLowerLayer:count 0
scalar SingleCell.eNB.cellularNic.rlc.um receivedPacketFromLowerLayer:sum(packetBytes) 0
scalar SingleCell.eNB.cellularNic.rlc.um receivedPacketFromUpperLayer:count 1000
scalar SingleCell.eNB.cellularNic.rlc.um receivedPacketFromUpperLayer:sum(packetBytes) 129000
scalar SingleCell.eNB.cellularNic.rlc.am rlcPacketLossTotal:mean -nan
scalar SingleCell.eNB.cellularNic.rlc.am rlcCellThroughputUl:simu5g_rateavg -nan
scalar SingleCell.eNB.cellularNic.rlc.am rlcCellThroughputDl:simu5g_rateavg -nan
scalar SingleCell.eNB.cellularNic.rlc.am rlcPduThroughputUl:simu5g_rateavg -nan
scalar SingleCell.eNB.cellularNic.rlc.am rlcPduThroughputDl:simu5g_rateavg -nan
scalar SingleCell.eNB.cellularNic.rlc.am rlcPduDelayUl:mean -nan
scalar SingleCell.eNB.cellularNic.rlc.am rlcPduDelayDl:mean -nan
scalar SingleCell.eNB.cellularNic.rlc.am rlcThroughputUl:simu5g_rateavg -nan
scalar SingleCell.eNB.cellularNic.rlc.am rlcThroughputDl:simu5g_rateavg -nan
scalar SingleCell.eNB.cellularNic.rlc.am rlcDelayUl:mean -nan
scalar SingleCell.eNB.cellularNic.rlc.am rlcDelayDl:mean -nan
scalar SingleCell.eNB.cellularNic.rlc.am rlcPduPacketLossUl:mean -nan
scalar SingleCell.eNB.cellularNic.rlc.am rlcPduPacketLossDl:mean -nan
scalar SingleCell.eNB.cellularNic.rlc.am rlcPacketLossUl:mean -nan
scalar SingleCell.eNB.cellularNic.rlc.am rlcPacketLossDl:mean -nan
scalar SingleCell.eNB.cellularNic.rlc.am rlcCellPacketLossUl:mean -nan
scalar SingleCell.eNB.cellularNic.rlc.am rlcCellPacketLossDl:mean -nan
scalar SingleCell.eNB.cellularNic.mac avgServedBlocksUl:mean 0
scalar SingleCell.eNB.cellularNic.mac avgServedBlocksDl:mean 0.10000000000000001
scalar SingleCell.eNB.cellularNic.mac harqTxAttemptsUl:mean -nan
scalar SingleCell.eNB.cellularNic.mac harqTxAttemptsDl:mean -nan
scalar SingleCell.eNB.cellularNic.mac harqErrorRate_4th_Ul:mean -nan
scalar SingleCell.eNB.cellularNic.mac harqErrorRate_4th_Dl:mean -nan
scalar SingleCell.eNB.cellularNic.mac harqErrorRate_3rd_Ul:mean -nan
scalar SingleCell.eNB.cellularNic.mac harqErrorRate_3rd_Dl:mean -nan
scalar SingleCell.eNB.cellularNic.mac harqErrorRate_2nd_Ul:mean -nan
scalar SingleCell.eNB.cellularNic.mac harqErrorRate_2nd_Dl:mean -nan
scalar SingleCell.eNB.cellularNic.mac harqErrorRate_1st_Ul:mean -nan
scalar SingleCell.eNB.cellularNic.mac harqErrorRate_1st_Dl:mean -nan
scalar SingleCell.eNB.cellularNic.mac harqErrorRateUl:mean -nan
scalar SingleCell.eNB.cellularNic.mac harqErrorRateDl:mean -nan
scalar SingleCell.eNB.cellularNic.mac macCellPacketLossUl:mean -nan
scalar SingleCell.eNB.cellularNic.mac macCellPacketLossDl:mean 0
scalar SingleCell.eNB.cellularNic.mac macPacketLossUl:mean -nan
scalar SingleCell.eNB.cellularNic.mac macPacketLossDl:mean -nan
scalar SingleCell.eNB.cellularNic.mac macThroughputUl:simu5g_rateavg -nan
scalar SingleCell.eNB.cellularNic.mac macThroughputDl:simu5g_rateavg -nan
scalar SingleCell.eNB.cellularNic.mac macDelayUl:mean -nan
scalar SingleCell.eNB.cellularNic.mac macDelayDl:mean -nan
scalar SingleCell.eNB.cellularNic.mac macCellThroughputUl:simu5g_rateavg -nan
scalar SingleCell.eNB.cellularNic.mac macCellThroughputDl:simu5g_rateavg 6647.5195978395477
scalar SingleCell.eNB.cellularNic.mac sentPacketToLowerLayer:count 1000
scalar SingleCell.eNB.cellularNic.mac sentPacketToLowerLayer:sum(packetBytes) 133000
scalar SingleCell.eNB.cellularNic.mac sentPacketToUpperLayer:count 1000
scalar SingleCell.eNB.cellularNic.mac sentPacketToUpperLayer:sum(packetBytes) 1000
scalar SingleCell.eNB.cellularNic.mac receivedPacketFromLowerLayer:count 4333
scalar SingleCell.eNB.cellularNic.mac receivedPacketFromLowerLayer:sum(packetBytes) 4333
scalar SingleCell.eNB.cellularNic.mac receivedPacketFromUpperLayer:count 2000
scalar SingleCell.eNB.cellularNic.mac receivedPacketFromUpperLayer:sum(packetBytes) 260000
scalar SingleCell.eNB.cellularNic.mac macBufferOverFlowD2D:mean -nan
scalar SingleCell.eNB.cellularNic.mac macBufferOverFlowUl:mean -nan
scalar SingleCell.eNB.cellularNic.mac macBufferOverFlowDl:mean -nan
scalar SingleCell.eNB.cellularNic.channelModel[0] measuredSinrUl:mean -nan
scalar SingleCell.eNB.cellularNic.channelModel[0] measuredSinrDl:mean -nan
scalar SingleCell.eNB.cellularNic.channelModel[0] rcvdSinrD2D:mean -nan
scalar SingleCell.eNB.cellularNic.channelModel[0] rcvdSinrUl:mean -nan
scalar SingleCell.eNB.cellularNic.channelModel[0] rcvdSinrDl:mean -nan
scalar SingleCell.eNB.cellularNic packetDropInterfaceDown:count 0
scalar SingleCell.eNB.cellularNic packetDropInterfaceDown:sum(packetBytes) 0
scalar SingleCell.eNB.cellularNic packetDropNoCarrier:count 0
scalar SingleCell.eNB.cellularNic packetDropNoCarrier:sum(packetBytes) 0
scalar SingleCell.eNB.pppIf.queue queueLength:last 0
scalar SingleCell.eNB.pppIf.queue queueLength:max 0
scalar SingleCell.eNB.pppIf.queue queueLength:timeavg 0
scalar SingleCell.eNB.pppIf.queue queueBitLength:last 0
scalar SingleCell.eNB.pppIf.queue queueBitLength:max 0
scalar SingleCell.eNB.pppIf.queue queueBitLength:timeavg 0
scalar SingleCell.eNB.pppIf.queue outgoingPackets:count 0
scalar SingleCell.eNB.pppIf.queue outgoingPacketLengths:sum 0
scalar SingleCell.eNB.pppIf.queue incomingPackets:count 0
scalar SingleCell.eNB.pppIf.queue incomingPacketLengths:sum 0
scalar SingleCell.eNB.pppIf.queue droppedPacketsQueueOverflow:count 0
scalar SingleCell.eNB.pppIf.queue droppedPacketLengthsQueueOverflow:sum 0
scalar SingleCell.eNB.pppIf.ppp transmissionState:timeavg 0
scalar SingleCell.eNB.pppIf.ppp rxPkOk:count 1000
scalar SingleCell.eNB.pppIf.ppp rxPkOk:sum(packetBytes) 171000
scalar SingleCell.eNB.pppIf.ppp txPk:count 0
scalar SingleCell.eNB.pppIf.ppp txPk:sum(packetBytes) 0
scalar SingleCell.eNB.pppIf.ppp rcvdPkFromHl:count 0
scalar SingleCell.eNB.pppIf.ppp rcvdPkFromHl:sum(packetBytes) 0
scalar SingleCell.eNB.pppIf.ppp passedUpPk:count 1000
scalar SingleCell.eNB.pppIf.ppp passedUpPk:sum(packetBytes) 164000
scalar SingleCell.eNB.pppIf.ppp packetDropIncorrectlyReceived:count 0
scalar SingleCell.eNB.pppIf.ppp packetDropIncorrectlyReceived:sum(packetBytes) 0
scalar SingleCell.eNB.pppIf.ppp packetDropInterfaceDown:count 0
scalar SingleCell.eNB.pppIf.ppp packetDropInterfaceDown:sum(packetBytes) 0
scalar SingleCell.eNB.pppIf packetDropInterfaceDown:count 0
scalar SingleCell.eNB.pppIf packetDropInterfaceDown:sum(packetBytes) 0
scalar SingleCell.eNB.pppIf packetDropNoCarrier:count 0
scalar SingleCell.eNB.pppIf packetDropNoCarrier:sum(packetBytes) 0
scalar SingleCell.eNB.pppMEHostIf.queue queueLength:last 0
scalar SingleCell.eNB.pppMEHostIf.queue queueLength:max 0
scalar SingleCell.eNB.pppMEHostIf.queue queueLength:timeavg 0
scalar SingleCell.eNB.pppMEHostIf.queue queueBitLength:last 0
scalar SingleCell.eNB.pppMEHostIf.queue queueBitLength:max 0
scalar SingleCell.eNB.pppMEHostIf.queue queueBitLength:timeavg 0
scalar SingleCell.eNB.pppMEHostIf.queue outgoingPackets:count 0
scalar SingleCell.eNB.pppMEHostIf.queue outgoingPacketLengths:sum 0
scalar SingleCell.eNB.pppMEHostIf.queue incomingPackets:count 0
scalar SingleCell.eNB.pppMEHostIf.queue incomingPacketLengths:sum 0
scalar SingleCell.eNB.pppMEHostIf.queue droppedPacketsQueueOverflow:count 0
scalar SingleCell.eNB.pppMEHostIf.queue droppedPacketLengthsQueueOverflow:sum 0
scalar SingleCell.eNB.pppMEHostIf.ppp transmissionState:timeavg 0
scalar SingleCell.eNB.pppMEHostIf.ppp rxPkOk:count 0
scalar SingleCell.eNB.pppMEHostIf.ppp rxPkOk:sum(packetBytes) 0
scalar SingleCell.eNB.pppMEHostIf.ppp txPk:count 0
scalar SingleCell.eNB.pppMEHostIf.ppp txPk:sum(packetBytes) 0
scalar SingleCell.eNB.pppMEHostIf.ppp rcvdPkFromHl:count 0
scalar SingleCell.eNB.pppMEHostIf.ppp rcvdPkFromHl:sum(packetBytes) 0
scalar SingleCell.eNB.pppMEHostIf.ppp passedUpPk:count 0
scalar SingleCell.eNB.pppMEHostIf.ppp passedUpPk:sum(packetBytes) 0
scalar SingleCell.eNB.pppMEHostIf.ppp packetDropIncorrectlyReceived:count 0
scalar SingleCell.eNB.pppMEHostIf.ppp packetDropIncorrectlyReceived:sum(packetBytes) 0
scalar SingleCell.eNB.pppMEHostIf.ppp packetDropInterfaceDown:count 0
scalar SingleCell.eNB.pppMEHostIf.ppp packetDropInterfaceDown:sum(packetBytes) 0
scalar SingleCell.eNB.pppMEHostIf packetDropInterfaceDown:count 0
scalar SingleCell.eNB.pppMEHostIf packetDropInterfaceDown:sum(packetBytes) 0
scalar SingleCell.eNB.pppMEHostIf packetDropNoCarrier:count 0
scalar SingleCell.eNB.pppMEHostIf packetDropNoCarrier:sum(packetBytes) 0
scalar SingleCell.eNB.ipv4.ip packetDropAddressResolutionFailed:count 0
scalar SingleCell.eNB.ipv4.ip packetDropAddressResolutionFailed:sum(packetBytes) 0
scalar SingleCell.eNB.ipv4.ip packetDropHopLimitReached:count 0
scalar SingleCell.eNB.ipv4.ip packetDropHopLimitReached:sum(packetBytes) 0
scalar SingleCell.eNB.ipv4.ip packetDropForwardingDisabled:count 0
scalar SingleCell.eNB.ipv4.ip packetDropForwardingDisabled:sum(packetBytes) 0
scalar SingleCell.eNB.ipv4.ip packetDropNoInterfaceFound:count 0
scalar SingleCell.eNB.ipv4.ip packetDropNoInterfaceFound:sum(packetBytes) 0
scalar SingleCell.eNB.ipv4.ip packetDropNoRouteFound:count 0
scalar SingleCell.eNB.ipv4.ip packetDropNoRouteFound:sum(packetBytes) 0
scalar SingleCell.eNB.ipv4.ip packetDropUndefined:count 0
scalar SingleCell.eNB.ipv4.ip packetDropUndefined:sum(packetBytes) 0
scalar SingleCell.eNB.ipv4.arp arpResolutionFailed:count 0
scalar SingleCell.eNB.ipv4.arp arpResolutionCompleted:count 0
scalar SingleCell.eNB.ipv4.arp arpResolutionInitiated:count 0
scalar SingleCell.eNB.ipv4.arp arpReplySent:count 0
scalar SingleCell.eNB.ipv4.arp arpReplySent:sum(packetBytes) 0
scalar SingleCell.eNB.ipv4.arp arpRequestSent:count 0
scalar SingleCell.eNB.ipv4.arp arpRequestSent:sum(packetBytes) 0
scalar SingleCell.eNB.udp packetReceived:count 1000
scalar SingleCell.eNB.udp packetReceived:sum(packetBytes) 144000
scalar SingleCell.eNB.udp packetSent:count 0
scalar SingleCell.eNB.udp packetSent:sum(packetBytes) 0
scalar SingleCell.eNB.udp passedUpPk:count 1000
scalar SingleCell.eNB.udp droppedPkWrongPort:count 0
scalar SingleCell.eNB.udp droppedPkBadChecksum:count 0
scalar SingleCell.ue[0].lo[0].lo rcvdPkFromHl:count 0
scalar SingleCell.ue[0].lo[0].lo rcvdPkFromHl:sum(packetBytes) 0
scalar SingleCell.ue[0].lo[0].lo passedUpPk:count 0
scalar SingleCell.ue[0].lo[0].lo passedUpPk:sum(packetBytes) 0
scalar SingleCell.ue[0].lo[0] packetDropInterfaceDown:count 0
scalar SingleCell.ue[0].lo[0] packetDropInterfaceDown:sum(packetBytes) 0
scalar SingleCell.ue[0].lo[0] packetDropNoCarrier:count 0
scalar SingleCell.ue[0].lo[0] packetDropNoCarrier:sum(packetBytes) 0
scalar SingleCell.ue[0].cellularNic.pdcp sentPacketToLowerLayer:count 0
scalar SingleCell.ue[0].cellularNic.pdcp sentPacketToLowerLayer:sum(packetBytes) 0
scalar SingleCell.ue[0].cellularNic.pdcp sentPacketToUpperLayer:count 999
scalar SingleCell.ue[0].cellularNic.pdcp sentPacketToUpperLayer:sum(packetBytes) 127872
scalar SingleCell.ue[0].cellularNic.pdcp receivedPacketFromLowerLayer:count 999
scalar SingleCell.ue[0].cellularNic.pdcp receivedPacketFromLowerLayer:sum(packetBytes) 128871
scalar SingleCell.ue[0].cellularNic.pdcp receivedPacketFromUpperLayer:count 0
scalar SingleCell.ue[0].cellularNic.pdcp receivedPacketFromUpperLayer:sum(packetBytes) 0
scalar SingleCell.ue[0].cellularNic.rlc.tm rlcPacketLossUl:mean -nan
scalar SingleCell.ue[0].cellularNic.rlc.tm rlcPacketLossUl:sum 0
scalar SingleCell.ue[0].cellularNic.rlc.tm rlcPacketLossDl:mean -nan
scalar SingleCell.ue[0].cellularNic.rlc.tm rlcPacketLossDl:sum 0
scalar SingleCell.ue[0].cellularNic.rlc.tm sentPacketToLowerLayer:count 0
scalar SingleCell.ue[0].cellularNic.rlc.tm sentPacketToLowerLayer:sum(packetBytes) 0
scalar SingleCell.ue[0].cellularNic.rlc.tm sentPacketToUpperLayer:count 0
scalar SingleCell.ue[0].cellularNic.rlc.tm sentPacketToUpperLayer:sum(packetBytes) 0
scalar SingleCell.ue[0].cellularNic.rlc.tm receivedPacketFromLowerLayer:count 0
scalar SingleCell.ue[0].cellularNic.rlc.tm receivedPacketFromLowerLayer:sum(packetBytes) 0
scalar SingleCell.ue[0].cellularNic.rlc.tm receivedPacketFromUpperLayer:count 0
scalar SingleCell.ue[0].cellularNic.rlc.tm receivedPacketFromUpperLayer:sum(packetBytes) 0
scalar SingleCell.ue[0].cellularNic.rlc.um rlcCellThroughputUl:simu5g_rateavg -nan
scalar SingleCell.ue[0].cellularNic.rlc.um rlcCellThroughputDl:simu5g_rateavg -nan
scalar SingleCell.ue[0].cellularNic.rlc.um rlcPduThroughputUl:simu5g_rateavg -nan
scalar SingleCell.ue[0].cellularNic.rlc.um rlcPduThroughputDl:simu5g_rateavg 0
scalar SingleCell.ue[0].cellularNic.rlc.um rlcPduDelayUl:mean -nan
scalar SingleCell.ue[0].cellularNic.rlc.um rlcPduDelayDl:mean 0.0040000000000000027
scalar SingleCell.ue[0].cellularNic.rlc.um rlcThroughputUl:simu5g_rateavg -nan
scalar SingleCell.ue[0].cellularNic.rlc.um rlcThroughputDl:simu5g_rateavg 6447.594196400767
scalar SingleCell.ue[0].cellularNic.rlc.um rlcDelayUl:mean -nan
scalar SingleCell.ue[0].cellularNic.rlc.um rlcDelayDl:mean 0.0047691277149999505
scalar SingleCell.ue[0].cellularNic.rlc.um sentPacketToLowerLayer:count 0
scalar SingleCell.ue[0].cellularNic.rlc.um sentPacketToLowerLayer:sum(packetBytes) 0
scalar SingleCell.ue[0].cellularNic.rlc.um sentPacketToUpperLayer:count 999
scalar SingleCell.ue[0].cellularNic.rlc.um sentPacketToUpperLayer:sum(packetBytes) 128871
scalar SingleCell.ue[0].cellularNic.rlc.um receivedPacketFromLowerLayer:count 999
scalar SingleCell.ue[0].cellularNic.rlc.um receivedPacketFromLowerLayer:sum(packetBytes) 130869
scalar SingleCell.ue[0].cellularNic.rlc.um receivedPacketFromUpperLayer:count 0
scalar SingleCell.ue[0].cellularNic.rlc.um receivedPacketFromUpperLayer:sum(packetBytes) 0
scalar SingleCell.ue[0].cellularNic.rlc.am rlcPacketLossTotal:mean -nan
scalar SingleCell.ue[0].cellularNic.rlc.am rlcCellThroughputUl:simu5g_rateavg -nan
scalar SingleCell.ue[0].cellularNic.rlc.am rlcCellThroughputDl:simu5g_rateavg -nan
scalar SingleCell.ue[0].cellularNic.rlc.am rlcPduThroughputUl:simu5g_rateavg -nan
scalar SingleCell.ue[0].cellularNic.rlc.am rlcPduThroughputDl:simu5g_rateavg -nan
scalar SingleCell.ue[0].cellularNic.rlc.am rlcPduDelayUl:mean -nan
scalar SingleCell.ue[0].cellularNic.rlc.am rlcPduDelayDl:mean -nan
scalar SingleCell.ue[0].cellularNic.rlc.am rlcThroughputUl:simu5g_rateavg -nan
scalar SingleCell.ue[0].cellularNic.rlc.am rlcThroughputDl:simu5g_rateavg -nan
scalar SingleCell.ue[0].cellularNic.rlc.am rlcDelayUl:mean -nan
scalar SingleCell.ue[0].cellularNic.rlc.am rlcDelayDl:mean -nan
scalar SingleCell.ue[0].cellularNic.rlc.am rlcPduPacketLossUl:mean -nan
scalar SingleCell.ue[0].cellularNic.rlc.am rlcPduPacketLossDl:mean -nan
scalar SingleCell.ue[0].cellularNic.rlc.am rlcPacketLossUl:mean -nan
scalar SingleCell.ue[0].cellularNic.rlc.am rlcPacketLossDl:mean -nan
scalar SingleCell.ue[0].cellularNic.rlc.am rlcCellPacketLossUl:mean -nan
scalar SingleCell.ue[0].cellularNic.rlc.am rlcCellPacketLossDl:mean -nan
scalar SingleCell.ue[0].cellularNic.mac harqTxAttemptsUl:mean -nan
scalar SingleCell.ue[0].cellularNic.mac harqTxAttemptsDl:mean 1
scalar SingleCell.ue[0].cellularNic.mac harqErrorRate_4th_Ul:mean -nan
scalar SingleCell.ue[0].cellularNic.mac harqErrorRate_4th_Dl:mean -nan
scalar SingleCell.ue[0].cellularNic.mac harqErrorRate_3rd_Ul:mean -nan
scalar SingleCell.ue[0].cellularNic.mac harqErrorRate_3rd_Dl:mean -nan
scalar SingleCell.ue[0].cellularNic.mac harqErrorRate_2nd_Ul:mean -nan
scalar SingleCell.ue[0].cellularNic.mac harqErrorRate_2nd_Dl:mean -nan
scalar SingleCell.ue[0].cellularNic.mac harqErrorRate_1st_Ul:mean -nan
scalar SingleCell.ue[0].cellularNic.mac harqErrorRate_1st_Dl:mean 0
scalar SingleCell.ue[0].cellularNic.mac harqErrorRateUl:mean -nan
scalar SingleCell.ue[0].cellularNic.mac harqErrorRateDl:mean 0
scalar SingleCell.ue[0].cellularNic.mac macCellPacketLossUl:mean -nan
scalar SingleCell.ue[0].cellularNic.mac macCellPacketLossDl:mean -nan
scalar SingleCell.ue[0].cellularNic.mac macPacketLossUl:mean -nan
scalar SingleCell.ue[0].cellularNic.mac macPacketLossDl:mean 0
scalar SingleCell.ue[0].cellularNic.mac macThroughputUl:simu5g_rateavg -nan
scalar SingleCell.ue[0].cellularNic.mac macThroughputDl:simu5g_rateavg 6647.5195978395477
scalar SingleCell.ue[0].cellularNic.mac macDelayUl:mean -nan
scalar SingleCell.ue[0].cellularNic.mac macDelayDl:mean 0.0040000000000000027
scalar SingleCell.ue[0].cellularNic.mac macCellThroughputUl:simu5g_rateavg -nan
scalar SingleCell.ue[0].cellularNic.mac macCellThroughputDl:simu5g_rateavg -nan
scalar SingleCell.ue[0].cellularNic.mac sentPacketToLowerLayer:count 999
scalar SingleCell.ue[0].cellularNic.mac sentPacketToLowerLayer:sum(packetBytes) 999
scalar SingleCell.ue[0].cellularNic.mac sentPacketToUpperLayer:count 999
scalar SingleCell.ue[0].cellularNic.mac sentPacketToUpperLayer:sum(packetBytes) 130869
scalar SingleCell.ue[0].cellularNic.mac receivedPacketFromLowerLayer:count 1000
scalar SingleCell.ue[0].cellularNic.mac receivedPacketFromLowerLayer:sum(packetBytes) 133000
scalar SingleCell.ue[0].cellularNic.mac receivedPacketFromUpperLayer:count 0
scalar SingleCell.ue[0].cellularNic.mac receivedPacketFromUpperLayer:sum(packetBytes) 0
scalar SingleCell.ue[0].cellularNic.mac macBufferOverFlowD2D:mean -nan
scalar SingleCell.ue[0].cellularNic.mac macBufferOverFlowUl:mean -nan
scalar SingleCell.ue[0].cellularNic.mac macBufferOverFlowDl:mean -nan
scalar SingleCell.ue[0].cellularNic.phy distance:mean -nan
scalar SingleCell.ue[0].cellularNic.phy averageCqiUl:mean -nan
scalar SingleCell.ue[0].cellularNic.phy averageCqiUl:count 0
scalar SingleCell.ue[0].cellularNic.phy averageCqiDl:mean 15
scalar SingleCell.ue[0].cellularNic.phy averageCqiDl:count 1000
scalar SingleCell.ue[0].cellularNic.channelModel[0] measuredSinrUl:mean 33.274543760154202
scalar SingleCell.ue[0].cellularNic.channelModel[0] measuredSinrDl:mean 55.365161202664972
scalar SingleCell.ue[0].cellularNic.channelModel[0] rcvdSinrD2D:mean -nan
scalar SingleCell.ue[0].cellularNic.channelModel[0] rcvdSinrUl:mean -nan
scalar SingleCell.ue[0].cellularNic.channelModel[0] rcvdSinrDl:mean 54.449868480521694
scalar SingleCell.ue[0].cellularNic packetDropInterfaceDown:count 0
scalar SingleCell.ue[0].cellularNic packetDropInterfaceDown:sum(packetBytes) 0
scalar SingleCell.ue[0].cellularNic packetDropNoCarrier:count 0
scalar SingleCell.ue[0].cellularNic packetDropNoCarrier:sum(packetBytes) 0
scalar SingleCell.ue[0].encap pauseSent:count 0
scalar SingleCell.ue[0].encap pauseSent:sum 0
scalar SingleCell.ue[0].encap decapPk:count 0
scalar SingleCell.ue[0].encap decapPk:sum(packetBytes) 0
scalar SingleCell.ue[0].encap encapPk:count 0
scalar SingleCell.ue[0].encap encapPk:sum(packetBytes) 0
scalar SingleCell.ue[0].ipv4.ip packetDropAddressResolutionFailed:count 0
scalar SingleCell.ue[0].ipv4.ip packetDropAddressResolutionFailed:sum(packetBytes) 0
scalar SingleCell.ue[0].ipv4.ip packetDropHopLimitReached:count 0
scalar SingleCell.ue[0].ipv4.ip packetDropHopLimitReached:sum(packetBytes) 0
scalar SingleCell.ue[0].ipv4.ip packetDropForwardingDisabled:count 0
scalar SingleCell.ue[0].ipv4.ip packetDropForwardingDisabled:sum(packetBytes) 0
scalar SingleCell.ue[0].ipv4.ip packetDropNoInterfaceFound:count 0
scalar SingleCell.ue[0].ipv4.ip packetDropNoInterfaceFound:sum(packetBytes) 0
scalar SingleCell.ue[0].ipv4.ip packetDropNoRouteFound:count 0
scalar SingleCell.ue[0].ipv4.ip packetDropNoRouteFound:sum(packetBytes) 0
scalar SingleCell.ue[0].ipv4.ip packetDropUndefined:count 0
scalar SingleCell.ue[0].ipv4.ip packetDropUndefined:sum(packetBytes) 0
scalar SingleCell.ue[0].ipv4.arp arpResolutionFailed:count 0
scalar SingleCell.ue[0].ipv4.arp arpResolutionCompleted:count 0
scalar SingleCell.ue[0].ipv4.arp arpResolutionInitiated:count 0
scalar SingleCell.ue[0].ipv4.arp arpReplySent:count 0
scalar SingleCell.ue[0].ipv4.arp arpReplySent:sum(packetBytes) 0
scalar SingleCell.ue[0].ipv4.arp arpRequestSent:count 0
scalar SingleCell.ue[0].ipv4.arp arpRequestSent:sum(packetBytes) 0
scalar SingleCell.ue[0].udp packetReceived:count 999
scalar SingleCell.ue[0].udp packetReceived:sum(packetBytes) 107892
scalar SingleCell.ue[0].udp packetSent:count 0
scalar SingleCell.ue[0].udp packetSent:sum(packetBytes) 0
scalar SingleCell.ue[0].udp passedUpPk:count 999
scalar SingleCell.ue[0].udp droppedPkWrongPort:count 0
scalar SingleCell.ue[0].udp droppedPkBadChecksum:count 0
scalar SingleCell.ue[0].app[0] cbrReceivedBytes:mean 100
scalar SingleCell.ue[0].app[0] cbrReceivedBytes:sum 99900
scalar SingleCell.ue[0].app[0] cbrReceivedThroughput:simu5g_rateavg 4995
scalar SingleCell.ue[0].app[0] cbrJitter:mean -nan
scalar SingleCell.ue[0].app[0] cbrFrameDelay:mean 0.0047696305149998834
scalar SingleCell.ue[0].app[0] cbrFrameLoss:mean 0
scalar SingleCell.server.ppp[0].queue queueingTime:histogram:count 1000
scalar SingleCell.server.ppp[0].queue queueingTime:histogram:sumweights 1000
scalar SingleCell.server.ppp[0].queue queueingTime:histogram:mean 0
scalar SingleCell.server.ppp[0].queue queueingTime:histogram:stddev 0
scalar SingleCell.server.ppp[0].queue queueingTime:histogram:min 0
scalar SingleCell.server.ppp[0].queue queueingTime:histogram:max 0
scalar SingleCell.server.ppp[0].queue queueingTime:histogram:numbins 50
scalar SingleCell.server.ppp[0].queue queueingTime:histogram:rangemin -0.5
scalar SingleCell.server.ppp[0].queue queueingTime:histogram:rangemax 0.5
scalar SingleCell.server.ppp[0].queue queueingTime:histogram:underflows 0
scalar SingleCell.server.ppp[0].queue queueingTime:histogram:overflows 0
scalar SingleCell.server.ppp[0].queue outgoingPacketLengths:histogram:count 1000
scalar SingleCell.server.ppp[0].queue outgoingPacketLengths:histogram:sumweights 1000
scalar SingleCell.server.ppp[0].queue outgoingPacketLengths:histogram:mean 1024
scalar SingleCell.server.ppp[0].queue outgoingPacketLengths:histogram:stddev 0
scalar SingleCell.server.ppp[0].queue outgoingPacketLengths:histogram:min 1024
scalar SingleCell.server.ppp[0].queue outgoingPacketLengths:histogram:max 1024
scalar SingleCell.server.ppp[0].queue outgoingPacketLengths:histogram:numbins 2
scalar SingleCell.server.ppp[0].queue outgoingPacketLengths:histogram:rangemin 1023
scalar SingleCell.server.ppp[0].queue outgoingPacketLengths:histogram:rangemax 1025
scalar SingleCell.server.ppp[0].queue outgoingPacketLengths:histogram:underflows 0
scalar SingleCell.server.ppp[0].queue outgoingPacketLengths:histogram:overflows 0
scalar SingleCell.server.ppp[0].queue flowQueueingTime:histogram:count 0
scalar SingleCell.server.ppp[0].queue flowQueueingTime:histogram:sumweights 0
scalar SingleCell.server.ppp[0].queue flowQueueingTime:histogram:mean -nan
scalar SingleCell.server.ppp[0].queue flowQueueingTime:histogram:stddev nan
scalar SingleCell.server.ppp[0].queue flowQueueingTime:histogram:min nan
scalar SingleCell.server.ppp[0].queue flowQueueingTime:histogram:max nan
scalar SingleCell.server.ppp[0].queue flowQueueingTime:histogram:numbins 1
scalar SingleCell.server.ppp[0].queue flowQueueingTime:histogram:rangemin 0
scalar SingleCell.server.ppp[0].queue flowQueueingTime:histogram:rangemax 1
scalar SingleCell.server.ppp[0].queue flowQueueingTime:histogram:underflows 0
scalar SingleCell.server.ppp[0].queue flowQueueingTime:histogram:overflows 0
scalar SingleCell.server.ppp[0].queue incomingPacketLengths:histogram:count 1000
scalar SingleCell.server.ppp[0].queue incomingPacketLengths:histogram:sumweights 1000
scalar SingleCell.server.ppp[0].queue incomingPacketLengths:histogram:mean 1024
scalar SingleCell.server.ppp[0].queue incomingPacketLengths:histogram:stddev 0
scalar SingleCell.server.ppp[0].queue incomingPacketLengths:histogram:min 1024
scalar SingleCell.server.ppp[0].queue incomingPacketLengths:histogram:max 1024
scalar SingleCell.server.ppp[0].queue incomingPacketLengths:histogram:numbins 2
scalar SingleCell.server.ppp[0].queue incomingPacketLengths:histogram:rangemin 1023
scalar SingleCell.server.ppp[0].queue incomingPacketLengths:histogram:rangemax 1025
scalar SingleCell.server.ppp[0].queue incomingPacketLengths:histogram:underflows 0
scalar SingleCell.server.ppp[0].queue incomingPacketLengths:histogram:overflows 0
scalar SingleCell.router.ppp[0].queue queueingTime:histogram:count 0
scalar SingleCell.router.ppp[0].queue queueingTime:histogram:sumweights 0
scalar SingleCell.router.ppp[0].queue queueingTime:histogram:mean -nan
scalar SingleCell.router.ppp[0].queue queueingTime:histogram:stddev nan
scalar SingleCell.router.ppp[0].queue queueingTime:histogram:min nan
scalar SingleCell.router.ppp[0].queue queueingTime:histogram:max nan
scalar SingleCell.router.ppp[0].queue queueingTime:histogram:numbins 1
scalar SingleCell.router.ppp[0].queue queueingTime:histogram:rangemin 0
scalar SingleCell.router.ppp[0].queue queueingTime:histogram:rangemax 1
scalar SingleCell.router.ppp[0].queue queueingTime:histogram:underflows 0
scalar SingleCell.router.ppp[0].queue queueingTime:histogram:overflows 0
scalar SingleCell.router.ppp[0].queue outgoingPacketLengths:histogram:count 0
scalar SingleCell.router.ppp[0].queue outgoingPacketLengths:histogram:sumweights 0
scalar SingleCell.router.ppp[0].queue outgoingPacketLengths:histogram:mean -nan
scalar SingleCell.router.ppp[0].queue outgoingPacketLengths:histogram:stddev nan
scalar SingleCell.router.ppp[0].queue outgoingPacketLengths:histogram:min nan
scalar SingleCell.router.ppp[0].queue outgoingPacketLengths:histogram:max nan
scalar SingleCell.router.ppp[0].queue outgoingPacketLengths:histogram:numbins 1
scalar SingleCell.router.ppp[0].queue outgoingPacketLengths:histogram:rangemin 0
scalar SingleCell.router.ppp[0].queue outgoingPacketLengths:histogram:rangemax 1
scalar SingleCell.router.ppp[0].queue outgoingPacketLengths:histogram:underflows 0
scalar SingleCell.router.ppp[0].queue outgoingPacketLengths:histogram:overflows 0
scalar SingleCell.router.ppp[0].queue flowQueueingTime:histogram:count 0
scalar SingleCell.router.ppp[0].queue flowQueueingTime:histogram:sumweights 0
scalar SingleCell.router.ppp[0].queue flowQueueingTime:histogram:mean -nan
scalar SingleCell.router.ppp[0].queue flowQueueingTime:histogram:stddev nan
scalar SingleCell.router.ppp[0].queue flowQueueingTime:histogram:min nan
scalar SingleCell.router.ppp[0].queue flowQueueingTime:histogram:max nan
scalar SingleCell.router.ppp[0].queue flowQueueingTime:histogram:numbins 1
scalar SingleCell.router.ppp[0].queue flowQueueingTime:histogram:rangemin 0
scalar SingleCell.router.ppp[0].queue flowQueueingTime:histogram:rangemax 1
scalar SingleCell.router.ppp[0].queue flowQueueingTime:histogram:underflows 0
scalar SingleCell.router.ppp[0].queue flowQueueingTime:histogram:overflows 0
scalar SingleCell.router.ppp[0].queue incomingPacketLengths:histogram:count 0
scalar SingleCell.router.ppp[0].queue incomingPacketLengths:histogram:sumweights 0
scalar SingleCell.router.ppp[0].queue incomingPacketLengths:histogram:mean -nan
scalar SingleCell.router.ppp[0].queue incomingPacketLengths:histogram:stddev nan
scalar SingleCell.router.ppp[0].queue incomingPacketLengths:histogram:min nan
scalar SingleCell.router.ppp[0].queue incomingPacketLengths:histogram:max nan
scalar SingleCell.router.ppp[0].queue incomingPacketLengths:histogram:numbins 1
scalar SingleCell.router.ppp[0].queue incomingPacketLengths:histogram:rangemin 0
scalar SingleCell.router.ppp[0].queue incomingPacketLengths:histogram:rangemax 1
scalar SingleCell.router.ppp[0].queue incomingPacketLengths:histogram:underflows 0
scalar SingleCell.router.ppp[0].queue incomingPacketLengths:histogram:overflows 0
scalar SingleCell.router.ppp[1].queue queueingTime:histogram:count 1000
scalar SingleCell.router.ppp[1].queue queueingTime:histogram:sumweights 1000
scalar SingleCell.router.ppp[1].queue queueingTime:histogram:mean 0
scalar SingleCell.router.ppp[1].queue queueingTime:histogram:stddev 0
scalar SingleCell.router.ppp[1].queue queueingTime:histogram:min 0
scalar SingleCell.router.ppp[1].queue queueingTime:histogram:max 0
scalar SingleCell.router.ppp[1].queue queueingTime:histogram:numbins 50
scalar SingleCell.router.ppp[1].queue queueingTime:histogram:rangemin -0.5
scalar SingleCell.router.ppp[1].queue queueingTime:histogram:rangemax 0.5
scalar SingleCell.router.ppp[1].queue queueingTime:histogram:underflows 0
scalar SingleCell.router.ppp[1].queue queueingTime:histogram:overflows 0
scalar SingleCell.router.ppp[1].queue outgoingPacketLengths:histogram:count 1000
scalar SingleCell.router.ppp[1].queue outgoingPacketLengths:histogram:sumweights 1000
scalar SingleCell.router.ppp[1].queue outgoingPacketLengths:histogram:mean 1024
scalar SingleCell.router.ppp[1].queue outgoingPacketLengths:histogram:stddev 0
scalar SingleCell.router.ppp[1].queue outgoingPacketLengths:histogram:min 1024
scalar SingleCell.router.ppp[1].queue outgoingPacketLengths:histogram:max 1024
scalar SingleCell.router.ppp[1].queue outgoingPacketLengths:histogram:numbins 2
scalar SingleCell.router.ppp[1].queue outgoingPacketLengths:histogram:rangemin 1023
scalar SingleCell.router.ppp[1].queue outgoingPacketLengths:histogram:rangemax 1025
scalar SingleCell.router.ppp[1].queue outgoingPacketLengths:histogram:underflows 0
scalar SingleCell.router.ppp[1].queue outgoingPacketLengths:histogram:overflows 0
scalar SingleCell.router.ppp[1].queue flowQueueingTime:histogram:count 0
scalar SingleCell.router.ppp[1].queue flowQueueingTime:histogram:sumweights 0
scalar SingleCell.router.ppp[1].queue flowQueueingTime:histogram:mean -nan
scalar SingleCell.router.ppp[1].queue flowQueueingTime:histogram:stddev nan
scalar SingleCell.router.ppp[1].queue flowQueueingTime:histogram:min nan
scalar SingleCell.router.ppp[1].queue flowQueueingTime:histogram:max nan
scalar SingleCell.router.ppp[1].queue flowQueueingTime:histogram:numbins 1
scalar SingleCell.router.ppp[1].queue flowQueueingTime:histogram:rangemin 0
scalar SingleCell.router.ppp[1].queue flowQueueingTime:histogram:rangemax 1
scalar SingleCell.router.ppp[1].queue flowQueueingTime:histogram:underflows 0
scalar SingleCell.router.ppp[1].queue flowQueueingTime:histogram:overflows 0
scalar SingleCell.router.ppp[1].queue incomingPacketLengths:histogram:count 1000
scalar SingleCell.router.ppp[1].queue incomingPacketLengths:histogram:sumweights 1000
scalar SingleCell.router.ppp[1].queue incomingPacketLengths:histogram:mean 1024
scalar SingleCell.router.ppp[1].queue incomingPacketLengths:histogram:stddev 0
scalar SingleCell.router.ppp[1].queue incomingPacketLengths:histogram:min 1024
scalar SingleCell.router.ppp[1].queue incomingPacketLengths:histogram:max 1024
scalar SingleCell.router.ppp[1].queue incomingPacketLengths:histogram:numbins 2
scalar SingleCell.router.ppp[1].queue incomingPacketLengths:histogram:rangemin 1023
scalar SingleCell.router.ppp[1].queue incomingPacketLengths:histogram:rangemax 1025
scalar SingleCell.router.ppp[1].queue incomingPacketLengths:histogram:underflows 0
scalar SingleCell.router.ppp[1].queue incomingPacketLengths:histogram:overflows 0
scalar SingleCell.pgw.ppp[0].queue queueingTime:histogram:count 1000
scalar SingleCell.pgw.ppp[0].queue queueingTime:histogram:sumweights 1000
scalar SingleCell.pgw.ppp[0].queue queueingTime:histogram:mean 0
scalar SingleCell.pgw.ppp[0].queue queueingTime:histogram:stddev 0
scalar SingleCell.pgw.ppp[0].queue queueingTime:histogram:min 0
scalar SingleCell.pgw.ppp[0].queue queueingTime:histogram:max 0
scalar SingleCell.pgw.ppp[0].queue queueingTime:histogram:numbins 50
scalar SingleCell.pgw.ppp[0].queue queueingTime:histogram:rangemin -0.5
scalar SingleCell.pgw.ppp[0].queue queueingTime:histogram:rangemax 0.5
scalar SingleCell.pgw.ppp[0].queue queueingTime:histogram:underflows 0
scalar SingleCell.pgw.ppp[0].queue queueingTime:histogram:overflows 0
scalar SingleCell.pgw.ppp[0].queue outgoingPacketLengths:histogram:count 1000
scalar SingleCell.pgw.ppp[0].queue outgoingPacketLengths:histogram:sumweights 1000
scalar SingleCell.pgw.ppp[0].queue outgoingPacketLengths:histogram:mean 1312
scalar SingleCell.pgw.ppp[0].queue outgoingPacketLengths:histogram:stddev 0
scalar SingleCell.pgw.ppp[0].queue outgoingPacketLengths:histogram:min 1312
scalar SingleCell.pgw.ppp[0].queue outgoingPacketLengths:histogram:max 1312
scalar SingleCell.pgw.ppp[0].queue outgoingPacketLengths:histogram:numbins 2
scalar SingleCell.pgw.ppp[0].queue outgoingPacketLengths:histogram:rangemin 1311
scalar SingleCell.pgw.ppp[0].queue outgoingPacketLengths:histogram:rangemax 1313
scalar SingleCell.pgw.ppp[0].queue outgoingPacketLengths:histogram:underflows 0
scalar SingleCell.pgw.ppp[0].queue outgoingPacketLengths:histogram:overflows 0
scalar SingleCell.pgw.ppp[0].queue flowQueueingTime:histogram:count 0
scalar SingleCell.pgw.ppp[0].queue flowQueueingTime:histogram:sumweights 0
scalar SingleCell.pgw.ppp[0].queue flowQueueingTime:histogram:mean -nan
scalar SingleCell.pgw.ppp[0].queue flowQueueingTime:histogram:stddev nan
scalar SingleCell.pgw.ppp[0].queue flowQueueingTime:histogram:min nan
scalar SingleCell.pgw.ppp[0].queue flowQueueingTime:histogram:max nan
scalar SingleCell.pgw.ppp[0].queue flowQueueingTime:histogram:numbins 1
scalar SingleCell.pgw.ppp[0].queue flowQueueingTime:histogram:rangemin 0
scalar SingleCell.pgw.ppp[0].queue flowQueueingTime:histogram:rangemax 1
scalar SingleCell.pgw.ppp[0].queue flowQueueingTime:histogram:underflows 0
scalar SingleCell.pgw.ppp[0].queue flowQueueingTime:histogram:overflows 0
scalar SingleCell.pgw.ppp[0].queue incomingPacketLengths:histogram:count 1000
scalar SingleCell.pgw.ppp[0].queue incomingPacketLengths:histogram:sumweights 1000
scalar SingleCell.pgw.ppp[0].queue incomingPacketLengths:histogram:mean 1312
scalar SingleCell.pgw.ppp[0].queue incomingPacketLengths:histogram:stddev 0
scalar SingleCell.pgw.ppp[0].queue incomingPacketLengths:histogram:min 1312
scalar SingleCell.pgw.ppp[0].queue incomingPacketLengths:histogram:max 1312
scalar SingleCell.pgw.ppp[0].queue incomingPacketLengths:histogram:numbins 2
scalar SingleCell.pgw.ppp[0].queue incomingPacketLengths:histogram:rangemin 1311
scalar SingleCell.pgw.ppp[0].queue incomingPacketLengths:histogram:rangemax 1313
scalar SingleCell.pgw.ppp[0].queue incomingPacketLengths:histogram:underflows 0
scalar SingleCell.pgw.ppp[0].queue incomingPacketLengths:histogram:overflows 0
scalar SingleCell.pgw.pppIf.queue queueingTime:histogram:count 0
scalar SingleCell.pgw.pppIf.queue queueingTime:histogram:sumweights 0
scalar SingleCell.pgw.pppIf.queue queueingTime:histogram:mean -nan
scalar SingleCell.pgw.pppIf.queue queueingTime:histogram:stddev nan
scalar SingleCell.pgw.pppIf.queue queueingTime:histogram:min nan
scalar SingleCell.pgw.pppIf.queue queueingTime:histogram:max nan
scalar SingleCell.pgw.pppIf.queue queueingTime:histogram:numbins 1
scalar SingleCell.pgw.pppIf.queue queueingTime:histogram:rangemin 0
scalar SingleCell.pgw.pppIf.queue queueingTime:histogram:rangemax 1
scalar SingleCell.pgw.pppIf.queue queueingTime:histogram:underflows 0
scalar SingleCell.pgw.pppIf.queue queueingTime:histogram:overflows 0
scalar SingleCell.pgw.pppIf.queue outgoingPacketLengths:histogram:count 0
scalar SingleCell.pgw.pppIf.queue outgoingPacketLengths:histogram:sumweights 0
scalar SingleCell.pgw.pppIf.queue outgoingPacketLengths:histogram:mean -nan
scalar SingleCell.pgw.pppIf.queue outgoingPacketLengths:histogram:stddev nan
scalar SingleCell.pgw.pppIf.queue outgoingPacketLengths:histogram:min nan
scalar SingleCell.pgw.pppIf.queue outgoingPacketLengths:histogram:max nan
scalar SingleCell.pgw.pppIf.queue outgoingPacketLengths:histogram:numbins 1
scalar SingleCell.pgw.pppIf.queue outgoingPacketLengths:histogram:rangemin 0
scalar SingleCell.pgw.pppIf.queue outgoingPacketLengths:histogram:rangemax 1
scalar SingleCell.pgw.pppIf.queue outgoingPacketLengths:histogram:underflows 0
scalar SingleCell.pgw.pppIf.queue outgoingPacketLengths:histogram:overflows 0
scalar SingleCell.pgw.pppIf.queue flowQueueingTime:histogram:count 0
scalar SingleCell.pgw.pppIf.queue flowQueueingTime:histogram:sumweights 0
scalar SingleCell.pgw.pppIf.queue flowQueueingTime:histogram:mean -nan
scalar SingleCell.pgw.pppIf.queue flowQueueingTime:histogram:stddev nan
scalar SingleCell.pgw.pppIf.queue flowQueueingTime:histogram:min nan
scalar SingleCell.pgw.pppIf.queue flowQueueingTime:histogram:max nan
scalar SingleCell.pgw.pppIf.queue flowQueueingTime:histogram:numbins 1
scalar SingleCell.pgw.pppIf.queue flowQueueingTime:histogram:rangemin 0
scalar SingleCell.pgw.pppIf.queue flowQueueingTime:histogram:rangemax 1
scalar SingleCell.pgw.pppIf.queue flowQueueingTime:histogram:underflows 0
scalar SingleCell.pgw.pppIf.queue flowQueueingTime:histogram:overflows 0
scalar SingleCell.pgw.pppIf.queue incomingPacketLengths:histogram:count 0
scalar SingleCell.pgw.pppIf.queue incomingPacketLengths:histogram:sumweights 0
scalar SingleCell.pgw.pppIf.queue incomingPacketLengths:histogram:mean -nan
scalar SingleCell.pgw.pppIf.queue incomingPacketLengths:histogram:stddev nan
scalar SingleCell.pgw.pppIf.queue incomingPacketLengths:histogram:min nan
scalar SingleCell.pgw.pppIf.queue incomingPacketLengths:histogram:max nan
scalar SingleCell.pgw.pppIf.queue incomingPacketLengths:histogram:numbins 1
scalar SingleCell.pgw.pppIf.queue incomingPacketLengths:histogram:rangemin 0
scalar SingleCell.pgw.pppIf.queue incomingPacketLengths:histogram:rangemax 1
scalar SingleCell.pgw.pppIf.queue incomingPacketLengths:histogram:underflows 0
scalar SingleCell.pgw.pppIf.queue incomingPacketLengths:histogram:overflows 0
scalar SingleCell.eNB.pppIf.queue queueingTime:histogram:count 0
scalar SingleCell.eNB.pppIf.queue queueingTime:histogram:sumweights 0
scalar SingleCell.eNB.pppIf.queue queueingTime:histogram:mean -nan
scalar SingleCell.eNB.pppIf.queue queueingTime:histogram:stddev nan
scalar SingleCell.eNB.pppIf.queue queueingTime:histogram:min nan
scalar SingleCell.eNB.pppIf.queue queueingTime:histogram:max nan
scalar SingleCell.eNB.pppIf.queue queueingTime:histogram:numbins 1
scalar SingleCell.eNB.pppIf.queue queueingTime:histogram:rangemin 0
scalar SingleCell.eNB.pppIf.queue queueingTime:histogram:rangemax 1
scalar SingleCell.eNB.pppIf.queue queueingTime:histogram:underflows 0
scalar SingleCell.eNB.pppIf.queue queueingTime:histogram:overflows 0
scalar SingleCell.eNB.pppIf.queue outgoingPacketLengths:histogram:count 0
scalar SingleCell.eNB.pppIf.queue outgoingPacketLengths:histogram:sumweights 0
scalar SingleCell.eNB.pppIf.queue outgoingPacketLengths:histogram:mean -nan
scalar SingleCell.eNB.pppIf.queue outgoingPacketLengths:histogram:stddev nan
scalar SingleCell.eNB.pppIf.queue outgoingPacketLengths:histogram:min nan
scalar SingleCell.eNB.pppIf.queue outgoingPacketLengths:histogram:max nan
scalar SingleCell.eNB.pppIf.queue outgoingPacketLengths:histogram:numbins 1
scalar SingleCell.eNB.pppIf.queue outgoingPacketLengths:histogram:rangemin 0
scalar SingleCell.eNB.pppIf.queue outgoingPacketLengths:histogram:rangemax 1
scalar SingleCell.eNB.pppIf.queue outgoingPacketLengths:histogram:underflows 0
scalar SingleCell.eNB.pppIf.queue outgoingPacketLengths:histogram:overflows 0
scalar SingleCell.eNB.pppIf.queue flowQueueingTime:histogram:count 0
scalar SingleCell.eNB.pppIf.queue flowQueueingTime:histogram:sumweights 0
scalar SingleCell.eNB.pppIf.queue flowQueueingTime:histogram:mean -nan
scalar SingleCell.eNB.pppIf.queue flowQueueingTime:histogram:stddev nan
scalar SingleCell.eNB.pppIf.queue flowQueueingTime:histogram:min nan
scalar SingleCell.eNB.pppIf.queue flowQueueingTime:histogram:max nan
scalar SingleCell.eNB.pppIf.queue flowQueueingTime:histogram:numbins 1
scalar SingleCell.eNB.pppIf.queue flowQueueingTime:histogram:rangemin 0
scalar SingleCell.eNB.pppIf.queue flowQueueingTime:histogram:rangemax 1
scalar SingleCell.eNB.pppIf.queue flowQueueingTime:histogram:underflows 0
scalar SingleCell.eNB.pppIf.queue flowQueueingTime:histogram:overflows 0
scalar SingleCell.eNB.pppIf.queue incomingPacketLengths:histogram:count 0
scalar SingleCell.eNB.pppIf.queue incomingPacketLengths:histogram:sumweights 0
scalar SingleCell.eNB.pppIf.queue incomingPacketLengths:histogram:mean -nan
scalar SingleCell.eNB.pppIf.queue incomingPacketLengths:histogram:stddev nan
scalar SingleCell.eNB.pppIf.queue incomingPacketLengths:histogram:min nan
scalar SingleCell.eNB.pppIf.queue incomingPacketLengths:histogram:max nan
scalar SingleCell.eNB.pppIf.queue incomingPacketLengths:histogram:numbins 1
scalar SingleCell.eNB.pppIf.queue incomingPacketLengths:histogram:rangemin 0
scalar SingleCell.eNB.pppIf.queue incomingPacketLengths:histogram:rangemax 1
scalar SingleCell.eNB.pppIf.queue incomingPacketLengths:histogram:underflows 0
scalar SingleCell.eNB.pppIf.queue incomingPacketLengths:histogram:overflows 0
scalar SingleCell.eNB.pppMEHostIf.queue queueingTime:histogram:count 0
scalar SingleCell.eNB.pppMEHostIf.queue queueingTime:histogram:sumweights 0
scalar SingleCell.eNB.pppMEHostIf.queue queueingTime:histogram:mean -nan
scalar SingleCell.eNB.pppMEHostIf.queue queueingTime:histogram:stddev nan
scalar SingleCell.eNB.pppMEHostIf.queue queueingTime:histogram:min nan
scalar SingleCell.eNB.pppMEHostIf.queue queueingTime:histogram:max nan
scalar SingleCell.eNB.pppMEHostIf.queue queueingTime:histogram:numbins 1
scalar SingleCell.eNB.pppMEHostIf.queue queueingTime:histogram:rangemin 0
scalar SingleCell.eNB.pppMEHostIf.queue queueingTime:histogram:rangemax 1
scalar SingleCell.eNB.pppMEHostIf.queue queueingTime:histogram:underflows 0
scalar SingleCell.eNB.pppMEHostIf.queue queueingTime:histogram:overflows 0
scalar SingleCell.eNB.pppMEHostIf.queue outgoingPacketLengths:histogram:count 0
scalar SingleCell.eNB.pppMEHostIf.queue outgoingPacketLengths:histogram:sumweights 0
scalar SingleCell.eNB.pppMEHostIf.queue outgoingPacketLengths:histogram:mean -nan
scalar SingleCell.eNB.pppMEHostIf.queue outgoingPacketLengths:histogram:stddev nan
scalar SingleCell.eNB.pppMEHostIf.queue outgoingPacketLengths:histogram:min nan
scalar SingleCell.eNB.pppMEHostIf.queue outgoingPacketLengths:histogram:max nan
scalar SingleCell.eNB.pppMEHostIf.queue outgoingPacketLengths:histogram:numbins 1
scalar SingleCell.eNB.pppMEHostIf.queue outgoingPacketLengths:histogram:rangemin 0
scalar SingleCell.eNB.pppMEHostIf.queue outgoingPacketLengths:histogram:rangemax 1
scalar SingleCell.eNB.pppMEHostIf.queue outgoingPacketLengths:histogram:underflows 0
scalar SingleCell.eNB.pppMEHostIf.queue outgoingPacketLengths:histogram:overflows 0
scalar SingleCell.eNB.pppMEHostIf.queue flowQueueingTime:histogram:count 0
scalar SingleCell.eNB.pppMEHostIf.queue flowQueueingTime:histogram:sumweights 0
scalar SingleCell.eNB.pppMEHostIf.queue flowQueueingTime:histogram:mean -nan
scalar SingleCell.eNB.pppMEHostIf.queue flowQueueingTime:histogram:stddev nan
scalar SingleCell.eNB.pppMEHostIf.queue flowQueueingTime:histogram:min nan
scalar SingleCell.eNB.pppMEHostIf.queue flowQueueingTime:histogram:max nan
scalar SingleCell.eNB.pppMEHostIf.queue flowQueueingTime:histogram:numbins 1
scalar SingleCell.eNB.pppMEHostIf.queue flowQueueingTime:histogram:rangemin 0
scalar SingleCell.eNB.pppMEHostIf.queue flowQueueingTime:histogram:rangemax 1
scalar SingleCell.eNB.pppMEHostIf.queue flowQueueingTime:histogram:underflows 0
scalar SingleCell.eNB.pppMEHostIf.queue flowQueueingTime:histogram:overflows 0
scalar SingleCell.eNB.pppMEHostIf.queue incomingPacketLengths:histogram:count 0
scalar SingleCell.eNB.pppMEHostIf.queue incomingPacketLengths:histogram:sumweights 0
scalar SingleCell.eNB.pppMEHostIf.queue incomingPacketLengths:histogram:mean -nan
scalar SingleCell.eNB.pppMEHostIf.queue incomingPacketLengths:histogram:stddev nan
scalar SingleCell.eNB.pppMEHostIf.queue incomingPacketLengths:histogram:min nan
scalar SingleCell.eNB.pppMEHostIf.queue incomingPacketLengths:histogram:max nan
scalar SingleCell.eNB.pppMEHostIf.queue incomingPacketLengths:histogram:numbins 1
scalar SingleCell.eNB.pppMEHostIf.queue incomingPacketLengths:histogram:rangemin 0
scalar SingleCell.eNB.pppMEHostIf.queue incomingPacketLengths:histogram:rangemax 1
scalar SingleCell.eNB.pppMEHostIf.queue incomingPacketLengths:histogram:underflows 0
scalar SingleCell.eNB.pppMEHostIf.queue incomingPacketLengths:histogram:overflows 0
statistic SingleCell.server.ppp[0].queue queueingTime:histogram
field count 1000
field mean 0
field stddev 0
field min 0
field max 0
field sum 0
field sqrsum 0
bin	-inf	0
bin	-0.5	0
bin	-0.47999999999999998	0
bin	-0.46000000000000002	0
bin	-0.44	0
bin	-0.41999999999999998	0
bin	-0.40000000000000002	0
bin	-0.38	0
bin	-0.35999999999999999	0
bin	-0.33999999999999997	0
bin	-0.32000000000000001	0
bin	-0.29999999999999999	0
bin	-0.28000000000000003	0
bin	-0.26000000000000001	0
bin	-0.23999999999999999	0
bin	-0.21999999999999997	0
bin	-0.20000000000000001	0
bin	-0.17999999999999999	0
bin	-0.15999999999999998	0
bin	-0.14000000000000001	0
bin	-0.12	0
bin	-0.099999999999999978	0
bin	-0.080000000000000016	0
bin	-0.059999999999999998	0
bin	-0.03999999999999998	0
bin	-0.020000000000000018	0
bin	0	1000
bin	0.020000000000000018	0
bin	0.040000000000000036	0
bin	0.060000000000000053	0
bin	0.07999999999999996	0
bin	0.099999999999999978	0
bin	0.12	0
bin	0.14000000000000001	0
bin	0.16000000000000003	0
bin	0.18000000000000005	0
bin	0.20000000000000007	0
bin	0.21999999999999997	0
bin	0.23999999999999999	0
bin	0.26000000000000001	0
bin	0.28000000000000003	0
bin	0.30000000000000004	0
bin	0.32000000000000006	0
bin	0.33999999999999997	0
bin	0.35999999999999999	0
bin	0.38	0
bin	0.40000000000000002	0
bin	0.42000000000000004	0
bin	0.44000000000000006	0
bin	0.45999999999999996	0
bin	0.47999999999999998	0
bin	0.5	0
statistic SingleCell.server.ppp[0].queue outgoingPacketLengths:histogram
field count 1000
field mean 1024
field stddev 0
field min 1024
field max 1024
field sum 1024000
field sqrsum 1048576000
bin	-inf	0
bin	1023	0
bin	1024	1000
bin	1025	0
statistic SingleCell.server.ppp[0].queue flowQueueingTime:histogram
field count 0
field mean -nan
field stddev nan
field min nan
field max nan
field sum 0
field sqrsum 0
bin	-inf	0
bin	0	0
bin	1	0
statistic SingleCell.server.ppp[0].queue incomingPacketLengths:histogram
field count 1000
field mean 1024
field stddev 0
field min 1024
field max 1024
field sum 1024000
field sqrsum 1048576000
bin	-inf	0
bin	1023	0
bin	1024	1000
bin	1025	0
statistic SingleCell.router.ppp[0].queue queueingTime:histogram
field count 0
field mean -nan
field stddev nan
field min nan
field max nan
field sum 0
field sqrsum 0
bin	-inf	0
bin	0	0
bin	1	0
statistic SingleCell.router.ppp[0].queue outgoingPacketLengths:histogram
field count 0
field mean -nan
field stddev nan
field min nan
field max nan
field sum 0
field sqrsum 0
bin	-inf	0
bin	0	0
bin	1	0
statistic SingleCell.router.ppp[0].queue flowQueueingTime:histogram
field count 0
field mean -nan
field stddev nan
field min nan
field max nan
field sum 0
field sqrsum 0
bin	-inf	0
bin	0	0
bin	1	0
statistic SingleCell.router.ppp[0].queue incomingPacketLengths:histogram
field count 0
field mean -nan
field stddev nan
field min nan
field max nan
field sum 0
field sqrsum 0
bin	-inf	0
bin	0	0
bin	1	0
statistic SingleCell.router.ppp[1].queue queueingTime:histogram
field count 1000
field mean 0
field stddev 0
field min 0
field max 0
field sum 0
field sqrsum 0
bin	-inf	0
bin	-0.5	0
bin	-0.47999999999999998	0
bin	-0.46000000000000002	0
bin	-0.44	0
bin	-0.41999999999999998	0
bin	-0.40000000000000002	0
bin	-0.38	0
bin	-0.35999999999999999	0
bin	-0.33999999999999997	0
bin	-0.32000000000000001	0
bin	-0.29999999999999999	0
bin	-0.28000000000000003	0
bin	-0.26000000000000001	0
bin	-0.23999999999999999	0
bin	-0.21999999999999997	0
bin	-0.20000000000000001	0
bin	-0.17999999999999999	0
bin	-0.15999999999999998	0
bin	-0.14000000000000001	0
bin	-0.12	0
bin	-0.099999999999999978	0
bin	-0.080000000000000016	0
bin	-0.059999999999999998	0
bin	-0.03999999999999998	0
bin	-0.020000000000000018	0
bin	0	1000
bin	0.020000000000000018	0
bin	0.040000000000000036	0
bin	0.060000000000000053	0
bin	0.07999999999999996	0
bin	0.099999999999999978	0
bin	0.12	0
bin	0.14000000000000001	0
bin	0.16000000000000003	0
bin	0.18000000000000005	0
bin	0.20000000000000007	0
bin	0.21999999999999997	0
bin	0.23999999999999999	0
bin	0.26000000000000001	0
bin	0.28000000000000003	0
bin	0.30000000000000004	0
bin	0.32000000000000006	0
bin	0.33999999999999997	0
bin	0.35999999999999999	0
bin	0.38	0
bin	0.40000000000000002	0
bin	0.42000000000000004	0
bin	0.44000000000000006	0
bin	0.45999999999999996	0
bin	0.47999999999999998	0
bin	0.5	0
statistic SingleCell.router.ppp[1].queue outgoingPacketLengths:histogram
field count 1000
field mean 1024
field stddev 0
field min 1024
field max 1024
field sum 1024000
field sqrsum 1048576000
bin	-inf	0
bin	1023	0
bin	1024	1000
bin	1025	0
statistic SingleCell.router.ppp[1].queue flowQueueingTime:histogram
field count 0
field mean -nan
field stddev nan
field min nan
field max nan
field sum 0
field sqrsum 0
bin	-inf	0
bin	0	0
bin	1	0
statistic SingleCell.router.ppp[1].queue incomingPacketLengths:histogram
field count 1000
field mean 1024
field stddev 0
field min 1024
field max 1024
field sum 1024000
field sqrsum 1048576000
bin	-inf	0
bin	1023	0
bin	1024	1000
bin	1025	0
statistic SingleCell.pgw.ppp[0].queue queueingTime:histogram
field count 1000
field mean 0
field stddev 0
field min 0
field max 0
field sum 0
field sqrsum 0
bin	-inf	0
bin	-0.5	0
bin	-0.47999999999999998	0
bin	-0.46000000000000002	0
bin	-0.44	0
bin	-0.41999999999999998	0
bin	-0.40000000000000002	0
bin	-0.38	0
bin	-0.35999999999999999	0
bin	-0.33999999999999997	0
bin	-0.32000000000000001	0
bin	-0.29999999999999999	0
bin	-0.28000000000000003	0
bin	-0.26000000000000001	0
bin	-0.23999999999999999	0
bin	-0.21999999999999997	0
bin	-0.20000000000000001	0
bin	-0.17999999999999999	0
bin	-0.15999999999999998	0
bin	-0.14000000000000001	0
bin	-0.12	0
bin	-0.099999999999999978	0
bin	-0.080000000000000016	0
bin	-0.059999999999999998	0
bin	-0.03999999999999998	0
bin	-0.020000000000000018	0
bin	0	1000
bin	0.020000000000000018	0
bin	0.040000000000000036	0
bin	0.060000000000000053	0
bin	0.07999999999999996	0
bin	0.099999999999999978	0
bin	0.12	0
bin	0.14000000000000001	0
bin	0.16000000000000003	0
bin	0.18000000000000005	0
bin	0.20000000000000007	0
bin	0.21999999999999997	0
bin	0.23999999999999999	0
bin	0.26000000000000001	0
bin	0.28000000000000003	0
bin	0.30000000000000004	0
bin	0.32000000000000006	0
bin	0.33999999999999997	0
bin	0.35999999999999999	0
bin	0.38	0
bin	0.40000000000000002	0
bin	0.42000000000000004	0
bin	0.44000000000000006	0
bin	0.45999999999999996	0
bin	0.47999999999999998	0
bin	0.5	0
statistic SingleCell.pgw.ppp[0].queue outgoingPacketLengths:histogram
field count 1000
field mean 1312
field stddev 0
field min 1312
field max 1312
field sum 1312000
field sqrsum 1721344000
bin	-inf	0
bin	1311	0
bin	1312	1000
bin	1313	0
statistic SingleCell.pgw.ppp[0].queue flowQueueingTime:histogram
field count 0
field mean -nan
field stddev nan
field min nan
field max nan
field sum 0
field sqrsum 0
bin	-inf	0
bin	0	0
bin	1	0
statistic SingleCell.pgw.ppp[0].queue incomingPacketLengths:histogram
field count 1000
field mean 1312
field stddev 0
field min 1312
field max 1312
field sum 1312000
field sqrsum 1721344000
bin	-inf	0
bin	1311	0
bin	1312	1000
bin	1313	0
statistic SingleCell.pgw.pppIf.queue queueingTime:histogram
field count 0
field mean -nan
field stddev nan
field min nan
field max nan
field sum 0
field sqrsum 0
bin	-inf	0
bin	0	0
bin	1	0
statistic SingleCell.pgw.pppIf.queue outgoingPacketLengths:histogram
field count 0
field mean -nan
field stddev nan
field min nan
field max nan
field sum 0
field sqrsum 0
bin	-inf	0
bin	0	0
bin	1	0
statistic SingleCell.pgw.pppIf.queue flowQueueingTime:histogram
field count 0
field mean -nan
field stddev nan
field min nan
field max nan
field sum 0
field sqrsum 0
bin	-inf	0
bin	0	0
bin	1	0
statistic SingleCell.pgw.pppIf.queue incomingPacketLengths:histogram
field count 0
field mean -nan
field stddev nan
field min nan
field max nan
field sum 0
field sqrsum 0
bin	-inf	0
bin	0	0
bin	1	0
statistic SingleCell.eNB.pppIf.queue queueingTime:histogram
field count 0
field mean -nan
field stddev nan
field min nan
field max nan
field sum 0
field sqrsum 0
bin	-inf	0
bin	0	0
bin	1	0
statistic SingleCell.eNB.pppIf.queue outgoingPacketLengths:histogram
field count 0
field mean -nan
field stddev nan
field min nan
field max nan
field sum 0
field sqrsum 0
bin	-inf	0
bin	0	0
bin	1	0
statistic SingleCell.eNB.pppIf.queue flowQueueingTime:histogram
field count 0
field mean -nan
field stddev nan
field min nan
field max nan
field sum 0
field sqrsum 0
bin	-inf	0
bin	0	0
bin	1	0
statistic SingleCell.eNB.pppIf.queue incomingPacketLengths:histogram
field count 0
field mean -nan
field stddev nan
field min nan
field max nan
field sum 0
field sqrsum 0
bin	-inf	0
bin	0	0
bin	1	0
statistic SingleCell.eNB.pppMEHostIf.queue queueingTime:histogram
field count 0
field mean -nan
field stddev nan
field min nan
field max nan
field sum 0
field sqrsum 0
bin	-inf	0
bin	0	0
bin	1	0
statistic SingleCell.eNB.pppMEHostIf.queue outgoingPacketLengths:histogram
field count 0
field mean -nan
field stddev nan
field min nan
field max nan
field sum 0
field sqrsum 0
bin	-inf	0
bin	0	0
bin	1	0
statistic SingleCell.eNB.pppMEHostIf.queue flowQueueingTime:histogram
field count 0
field mean -nan
field stddev nan
field min nan
field max nan
field sum 0
field sqrsum 0
bin	-inf	0
bin	0	0
bin	1	0
statistic SingleCell.eNB.pppMEHostIf.queue incomingPacketLengths:histogram
field count 0
field mean -nan
field stddev nan
field min nan
field max nan
field sum 0
field sqrsum 0
bin	-inf	0
bin	0	0
bin	1	0
scalar SingleCell.server.lo[0].lo rcvdPkFromHl:vector(packetBytes):count 0
scalar SingleCell.server.lo[0].lo rcvdPkFromHl:vector(packetBytes):sum 0
scalar SingleCell.server.lo[0].lo rcvdPkFromHl:vector(packetBytes):sumweights 0
scalar SingleCell.server.lo[0].lo rcvdPkFromHl:vector(packetBytes):mean -nan
scalar SingleCell.server.lo[0].lo rcvdPkFromHl:vector(packetBytes):stddev nan
scalar SingleCell.server.lo[0].lo rcvdPkFromHl:vector(packetBytes):min inf
scalar SingleCell.server.lo[0].lo rcvdPkFromHl:vector(packetBytes):max -inf
scalar SingleCell.server.lo[0].lo rcvdPkFromHl:vector(packetBytes):starttime nan
scalar SingleCell.server.lo[0].lo rcvdPkFromHl:vector(packetBytes):endtime nan
scalar SingleCell.server.lo[0].lo passedUpPk:vector(packetBytes):count 0
scalar SingleCell.server.lo[0].lo passedUpPk:vector(packetBytes):sum 0
scalar SingleCell.server.lo[0].lo passedUpPk:vector(packetBytes):sumweights 0
scalar SingleCell.server.lo[0].lo passedUpPk:vector(packetBytes):mean -nan
scalar SingleCell.server.lo[0].lo passedUpPk:vector(packetBytes):stddev nan
scalar SingleCell.server.lo[0].lo passedUpPk:vector(packetBytes):min inf
scalar SingleCell.server.lo[0].lo passedUpPk:vector(packetBytes):max -inf
scalar SingleCell.server.lo[0].lo passedUpPk:vector(packetBytes):starttime nan
scalar SingleCell.server.lo[0].lo passedUpPk:vector(packetBytes):endtime nan
scalar SingleCell.server.lo[0] packetDropInterfaceDown:vector(packetBytes):count 0
scalar SingleCell.server.lo[0] packetDropInterfaceDown:vector(packetBytes):sum 0
scalar SingleCell.server.lo[0] packetDropInterfaceDown:vector(packetBytes):sumweights 0
scalar SingleCell.server.lo[0] packetDropInterfaceDown:vector(packetBytes):mean -nan
scalar SingleCell.server.lo[0] packetDropInterfaceDown:vector(packetBytes):stddev nan
scalar SingleCell.server.lo[0] packetDropInterfaceDown:vector(packetBytes):min inf
scalar SingleCell.server.lo[0] packetDropInterfaceDown:vector(packetBytes):max -inf
scalar SingleCell.server.lo[0] packetDropInterfaceDown:vector(packetBytes):starttime nan
scalar SingleCell.server.lo[0] packetDropInterfaceDown:vector(packetBytes):endtime nan
scalar SingleCell.server.lo[0] packetDropNoCarrier:vector(packetBytes):count 0
scalar SingleCell.server.lo[0] packetDropNoCarrier:vector(packetBytes):sum 0
scalar SingleCell.server.lo[0] packetDropNoCarrier:vector(packetBytes):sumweights 0
scalar SingleCell.server.lo[0] packetDropNoCarrier:vector(packetBytes):mean -nan
scalar SingleCell.server.lo[0] packetDropNoCarrier:vector(packetBytes):stddev nan
scalar SingleCell.server.lo[0] packetDropNoCarrier:vector(packetBytes):min inf
scalar SingleCell.server.lo[0] packetDropNoCarrier:vector(packetBytes):max -inf
scalar SingleCell.server.lo[0] packetDropNoCarrier:vector(packetBytes):starttime nan
scalar SingleCell.server.lo[0] packetDropNoCarrier:vector(packetBytes):endtime nan
scalar SingleCell.server.ppp[0].queue queueLength:vector:count 0
scalar SingleCell.server.ppp[0].queue queueLength:vector:sum 0
scalar SingleCell.server.ppp[0].queue queueLength:vector:sumweights 0
scalar SingleCell.server.ppp[0].queue queueLength:vector:mean -nan
scalar SingleCell.server.ppp[0].queue queueLength:vector:stddev nan
scalar SingleCell.server.ppp[0].queue queueLength:vector:min inf
scalar SingleCell.server.ppp[0].queue queueLength:vector:max -inf
scalar SingleCell.server.ppp[0].queue queueLength:vector:starttime nan
scalar SingleCell.server.ppp[0].queue queueLength:vector:endtime nan
scalar SingleCell.server.ppp[0].queue queueBitLength:vector:count 0
scalar SingleCell.server.ppp[0].queue queueBitLength:vector:sum 0
scalar SingleCell.server.ppp[0].queue queueBitLength:vector:sumweights 0
scalar SingleCell.server.ppp[0].queue queueBitLength:vector:mean -nan
scalar SingleCell.server.ppp[0].queue queueBitLength:vector:stddev nan
scalar SingleCell.server.ppp[0].queue queueBitLength:vector:min inf
scalar SingleCell.server.ppp[0].queue queueBitLength:vector:max -inf
scalar SingleCell.server.ppp[0].queue queueBitLength:vector:starttime nan
scalar SingleCell.server.ppp[0].queue queueBitLength:vector:endtime nan
scalar SingleCell.server.ppp[0].queue queueingTime:vector:count 0
scalar SingleCell.server.ppp[0].queue queueingTime:vector:sum 0
scalar SingleCell.server.ppp[0].queue queueingTime:vector:sumweights 0
scalar SingleCell.server.ppp[0].queue queueingTime:vector:mean -nan
scalar SingleCell.server.ppp[0].queue queueingTime:vector:stddev nan
scalar SingleCell.server.ppp[0].queue queueingTime:vector:min inf
scalar SingleCell.server.ppp[0].queue queueingTime:vector:max -inf
scalar SingleCell.server.ppp[0].queue queueingTime:vector:starttime nan
scalar SingleCell.server.ppp[0].queue queueingTime:vector:endtime nan
scalar SingleCell.server.ppp[0].queue incomingPacketLengths:vector:count 0
scalar SingleCell.server.ppp[0].queue incomingPacketLengths:vector:sum 0
scalar SingleCell.server.ppp[0].queue incomingPacketLengths:vector:sumweights 0
scalar SingleCell.server.ppp[0].queue incomingPacketLengths:vector:mean -nan
scalar SingleCell.server.ppp[0].queue incomingPacketLengths:vector:stddev nan
scalar SingleCell.server.ppp[0].queue incomingPacketLengths:vector:min inf
scalar SingleCell.server.ppp[0].queue incomingPacketLengths:vector:max -inf
scalar SingleCell.server.ppp[0].queue incomingPacketLengths:vector:starttime nan
scalar SingleCell.server.ppp[0].queue incomingPacketLengths:vector:endtime nan
scalar SingleCell.server.ppp[0].queue incomingDataRate:vector:count 0
scalar SingleCell.server.ppp[0].queue incomingDataRate:vector:sum 0
scalar SingleCell.server.ppp[0].queue incomingDataRate:vector:sumweights 0
scalar SingleCell.server.ppp[0].queue incomingDataRate:vector:mean -nan
scalar SingleCell.server.ppp[0].queue incomingDataRate:vector:stddev nan
scalar SingleCell.server.ppp[0].queue incomingDataRate:vector:min inf
scalar SingleCell.server.ppp[0].queue incomingDataRate:vector:max -inf
scalar SingleCell.server.ppp[0].queue incomingDataRate:vector:starttime nan
[...]
scalar SingleCell.ue[0].cellularNic.phy servingCell:vector:starttime nan
scalar SingleCell.ue[0].cellularNic.phy servingCell:vector:endtime nan
scalar SingleCell.ue[0].cellularNic.phy averageCqiDl:vector:count 0
scalar SingleCell.ue[0].cellularNic.phy averageCqiDl:vector:sum 0
scalar SingleCell.ue[0].cellularNic.phy averageCqiDl:vector:sumweights 0
scalar SingleCell.ue[0].cellularNic.phy averageCqiDl:vector:mean -nan
scalar SingleCell.ue[0].cellularNic.phy averageCqiDl:vector:stddev nan
scalar SingleCell.ue[0].cellularNic.phy averageCqiDl:vector:min inf
scalar SingleCell.ue[0].cellularNic.phy averageCqiDl:vector:max -inf
scalar SingleCell.ue[0].cellularNic.phy averageCqiDl:vector:starttime nan
scalar SingleCell.ue[0].cellularNic.phy averageCqiDl:vector:endtime nan
scalar SingleCell.ue[0].cellularNic.phy averageCqiUl:vector:count 0
scalar SingleCell.ue[0].cellularNic.phy averageCqiUl:vector:sum 0
scalar SingleCell.ue[0].cellularNic.phy averageCqiUl:vector:sumweights 0
scalar SingleCell.ue[0].cellularNic.phy averageCqiUl:vector:mean -nan
scalar SingleCell.ue[0].cellularNic.phy averageCqiUl:vector:stddev nan
scalar SingleCell.ue[0].cellularNic.phy averageCqiUl:vector:min inf
scalar SingleCell.ue[0].cellularNic.phy averageCqiUl:vector:max -inf
scalar SingleCell.ue[0].cellularNic.phy averageCqiUl:vector:starttime nan
scalar SingleCell.ue[0].cellularNic.phy averageCqiUl:vector:endtime nan
scalar SingleCell.ue[0].cellularNic.channelModel[0] rcvdSinrDl:vector:count 0
scalar SingleCell.ue[0].cellularNic.channelModel[0] rcvdSinrDl:vector:sum 0
scalar SingleCell.ue[0].cellularNic.channelModel[0] rcvdSinrDl:vector:sumweights 0
scalar SingleCell.ue[0].cellularNic.channelModel[0] rcvdSinrDl:vector:mean -nan
scalar SingleCell.ue[0].cellularNic.channelModel[0] rcvdSinrDl:vector:stddev nan
scalar SingleCell.ue[0].cellularNic.channelModel[0] rcvdSinrDl:vector:min inf
scalar SingleCell.ue[0].cellularNic.channelModel[0] rcvdSinrDl:vector:max -inf
scalar SingleCell.ue[0].cellularNic.channelModel[0] rcvdSinrDl:vector:starttime nan
scalar SingleCell.ue[0].cellularNic.channelModel[0] rcvdSinrDl:vector:endtime nan
scalar SingleCell.ue[0].cellularNic.channelModel[0] rcvdSinrUl:vector:count 0
scalar SingleCell.ue[0].cellularNic.channelModel[0] rcvdSinrUl:vector:sum 0
scalar SingleCell.ue[0].cellularNic.channelModel[0] rcvdSinrUl:vector:sumweights 0
scalar SingleCell.ue[0].cellularNic.channelModel[0] rcvdSinrUl:vector:mean -nan
scalar SingleCell.ue[0].cellularNic.channelModel[0] rcvdSinrUl:vector:stddev nan
scalar SingleCell.ue[0].cellularNic.channelModel[0] rcvdSinrUl:vector:min inf
scalar SingleCell.ue[0].cellularNic.channelModel[0] rcvdSinrUl:vector:max -inf
scalar SingleCell.ue[0].cellularNic.channelModel[0] rcvdSinrUl:vector:starttime nan
scalar SingleCell.ue[0].cellularNic.channelModel[0] rcvdSinrUl:vector:endtime nan
scalar SingleCell.ue[0].cellularNic.channelModel[0] rcvdSinrD2D:vector:count 0
scalar SingleCell.ue[0].cellularNic.channelModel[0] rcvdSinrD2D:vector:sum 0
scalar SingleCell.ue[0].cellularNic.channelModel[0] rcvdSinrD2D:vector:sumweights 0
scalar SingleCell.ue[0].cellularNic.channelModel[0] rcvdSinrD2D:vector:mean -nan
scalar SingleCell.ue[0].cellularNic.channelModel[0] rcvdSinrD2D:vector:stddev nan
scalar SingleCell.ue[0].cellularNic.channelModel[0] rcvdSinrD2D:vector:min inf
scalar SingleCell.ue[0].cellularNic.channelModel[0] rcvdSinrD2D:vector:max -inf
scalar SingleCell.ue[0].cellularNic.channelModel[0] rcvdSinrD2D:vector:starttime nan
scalar SingleCell.ue[0].cellularNic.channelModel[0] rcvdSinrD2D:vector:endtime nan
scalar SingleCell.ue[0].cellularNic.channelModel[0] measuredSinrDl:vector:count 0
scalar SingleCell.ue[0].cellularNic.channelModel[0] measuredSinrDl:vector:sum 0
scalar SingleCell.ue[0].cellularNic.channelModel[0] measuredSinrDl:vector:sumweights 0
scalar SingleCell.ue[0].cellularNic.channelModel[0] measuredSinrDl:vector:mean -nan
scalar SingleCell.ue[0].cellularNic.channelModel[0] measuredSinrDl:vector:stddev nan
scalar SingleCell.ue[0].cellularNic.channelModel[0] measuredSinrDl:vector:min inf
scalar SingleCell.ue[0].cellularNic.channelModel[0] measuredSinrDl:vector:max -inf
scalar SingleCell.ue[0].cellularNic.channelModel[0] measuredSinrDl:vector:starttime nan
scalar SingleCell.ue[0].cellularNic.channelModel[0] measuredSinrDl:vector:endtime nan
scalar SingleCell.ue[0].cellularNic.channelModel[0] measuredSinrUl:vector:count 0
scalar SingleCell.ue[0].cellularNic.channelModel[0] measuredSinrUl:vector:sum 0
scalar SingleCell.ue[0].cellularNic.channelModel[0] measuredSinrUl:vector:sumweights 0
scalar SingleCell.ue[0].cellularNic.channelModel[0] measuredSinrUl:vector:mean -nan
scalar SingleCell.ue[0].cellularNic.channelModel[0] measuredSinrUl:vector:stddev nan
scalar SingleCell.ue[0].cellularNic.channelModel[0] measuredSinrUl:vector:min inf
scalar SingleCell.ue[0].cellularNic.channelModel[0] measuredSinrUl:vector:max -inf
scalar SingleCell.ue[0].cellularNic.channelModel[0] measuredSinrUl:vector:starttime nan
scalar SingleCell.ue[0].cellularNic.channelModel[0] measuredSinrUl:vector:endtime nan
scalar SingleCell.ue[0].cellularNic packetDropInterfaceDown:vector(packetBytes):count 0
scalar SingleCell.ue[0].cellularNic packetDropInterfaceDown:vector(packetBytes):sum 0
scalar SingleCell.ue[0].cellularNic packetDropInterfaceDown:vector(packetBytes):sumweights 0
scalar SingleCell.ue[0].cellularNic packetDropInterfaceDown:vector(packetBytes):mean -nan
scalar SingleCell.ue[0].cellularNic packetDropInterfaceDown:vector(packetBytes):stddev nan
scalar SingleCell.ue[0].cellularNic packetDropInterfaceDown:vector(packetBytes):min inf
scalar SingleCell.ue[0].cellularNic packetDropInterfaceDown:vector(packetBytes):max -inf
scalar SingleCell.ue[0].cellularNic packetDropInterfaceDown:vector(packetBytes):starttime nan
scalar SingleCell.ue[0].cellularNic packetDropInterfaceDown:vector(packetBytes):endtime nan
scalar SingleCell.ue[0].cellularNic packetDropNoCarrier:vector(packetBytes):count 0
scalar SingleCell.ue[0].cellularNic packetDropNoCarrier:vector(packetBytes):sum 0
scalar SingleCell.ue[0].cellularNic packetDropNoCarrier:vector(packetBytes):sumweights 0
scalar SingleCell.ue[0].cellularNic packetDropNoCarrier:vector(packetBytes):mean -nan
scalar SingleCell.ue[0].cellularNic packetDropNoCarrier:vector(packetBytes):stddev nan
scalar SingleCell.ue[0].cellularNic packetDropNoCarrier:vector(packetBytes):min inf
scalar SingleCell.ue[0].cellularNic packetDropNoCarrier:vector(packetBytes):max -inf
scalar SingleCell.ue[0].cellularNic packetDropNoCarrier:vector(packetBytes):starttime nan
scalar SingleCell.ue[0].cellularNic packetDropNoCarrier:vector(packetBytes):endtime nan
scalar SingleCell.ue[0].encap encapPk:vector(packetBytes):count 0
scalar SingleCell.ue[0].encap encapPk:vector(packetBytes):sum 0
scalar SingleCell.ue[0].encap encapPk:vector(packetBytes):sumweights 0
scalar SingleCell.ue[0].encap encapPk:vector(packetBytes):mean -nan
scalar SingleCell.ue[0].encap encapPk:vector(packetBytes):stddev nan
scalar SingleCell.ue[0].encap encapPk:vector(packetBytes):min inf
scalar SingleCell.ue[0].encap encapPk:vector(packetBytes):max -inf
scalar SingleCell.ue[0].encap encapPk:vector(packetBytes):starttime nan
scalar SingleCell.ue[0].encap encapPk:vector(packetBytes):endtime nan
scalar SingleCell.ue[0].encap decapPk:vector(packetBytes):count 0
scalar SingleCell.ue[0].encap decapPk:vector(packetBytes):sum 0
scalar SingleCell.ue[0].encap decapPk:vector(packetBytes):sumweights 0
scalar SingleCell.ue[0].encap decapPk:vector(packetBytes):mean -nan
scalar SingleCell.ue[0].encap decapPk:vector(packetBytes):stddev nan
scalar SingleCell.ue[0].encap decapPk:vector(packetBytes):min inf
scalar SingleCell.ue[0].encap decapPk:vector(packetBytes):max -inf
scalar SingleCell.ue[0].encap decapPk:vector(packetBytes):starttime nan
scalar SingleCell.ue[0].encap decapPk:vector(packetBytes):endtime nan
scalar SingleCell.ue[0].encap pauseSent:vector:count 0
scalar SingleCell.ue[0].encap pauseSent:vector:sum 0
scalar SingleCell.ue[0].encap pauseSent:vector:sumweights 0
scalar SingleCell.ue[0].encap pauseSent:vector:mean -nan
scalar SingleCell.ue[0].encap pauseSent:vector:stddev nan
scalar SingleCell.ue[0].encap pauseSent:vector:min inf
scalar SingleCell.ue[0].encap pauseSent:vector:max -inf
scalar SingleCell.ue[0].encap pauseSent:vector:starttime nan
scalar SingleCell.ue[0].encap pauseSent:vector:endtime nan
scalar SingleCell.ue[0].ipv4.ip packetDropAddressResolutionFailed:vector(packetBytes):count 0
scalar SingleCell.ue[0].ipv4.ip packetDropAddressResolutionFailed:vector(packetBytes):sum 0
scalar SingleCell.ue[0].ipv4.ip packetDropAddressResolutionFailed:vector(packetBytes):sumweights 0
scalar SingleCell.ue[0].ipv4.ip packetDropAddressResolutionFailed:vector(packetBytes):mean -nan
scalar SingleCell.ue[0].ipv4.ip packetDropAddressResolutionFailed:vector(packetBytes):stddev nan
scalar SingleCell.ue[0].ipv4.ip packetDropAddressResolutionFailed:vector(packetBytes):min inf
scalar SingleCell.ue[0].ipv4.ip packetDropAddressResolutionFailed:vector(packetBytes):max -inf
scalar SingleCell.ue[0].ipv4.ip packetDropAddressResolutionFailed:vector(packetBytes):starttime nan
scalar SingleCell.ue[0].ipv4.ip packetDropAddressResolutionFailed:vector(packetBytes):endtime nan
scalar SingleCell.ue[0].ipv4.ip packetDropHopLimitReached:vector(packetBytes):count 0
scalar SingleCell.ue[0].ipv4.ip packetDropHopLimitReached:vector(packetBytes):sum 0
scalar SingleCell.ue[0].ipv4.ip packetDropHopLimitReached:vector(packetBytes):sumweights 0
scalar SingleCell.ue[0].ipv4.ip packetDropHopLimitReached:vector(packetBytes):mean -nan
scalar SingleCell.ue[0].ipv4.ip packetDropHopLimitReached:vector(packetBytes):stddev nan
scalar SingleCell.ue[0].ipv4.ip packetDropHopLimitReached:vector(packetBytes):min inf
scalar SingleCell.ue[0].ipv4.ip packetDropHopLimitReached:vector(packetBytes):max -inf
scalar SingleCell.ue[0].ipv4.ip packetDropHopLimitReached:vector(packetBytes):starttime nan
scalar SingleCell.ue[0].ipv4.ip packetDropHopLimitReached:vector(packetBytes):endtime nan
scalar SingleCell.ue[0].ipv4.ip packetDropForwardingDisabled:vector(packetBytes):count 0
scalar SingleCell.ue[0].ipv4.ip packetDropForwardingDisabled:vector(packetBytes):sum 0
scalar SingleCell.ue[0].ipv4.ip packetDropForwardingDisabled:vector(packetBytes):sumweights 0
scalar SingleCell.ue[0].ipv4.ip packetDropForwardingDisabled:vector(packetBytes):mean -nan
scalar SingleCell.ue[0].ipv4.ip packetDropForwardingDisabled:vector(packetBytes):stddev nan
scalar SingleCell.ue[0].ipv4.ip packetDropForwardingDisabled:vector(packetBytes):min inf
scalar SingleCell.ue[0].ipv4.ip packetDropForwardingDisabled:vector(packetBytes):max -inf
scalar SingleCell.ue[0].ipv4.ip packetDropForwardingDisabled:vector(packetBytes):starttime nan
scalar SingleCell.ue[0].ipv4.ip packetDropForwardingDisabled:vector(packetBytes):endtime nan
scalar SingleCell.ue[0].ipv4.ip packetDropNoInterfaceFound:vector(packetBytes):count 0
scalar SingleCell.ue[0].ipv4.ip packetDropNoInterfaceFound:vector(packetBytes):sum 0
scalar SingleCell.ue[0].ipv4.ip packetDropNoInterfaceFound:vector(packetBytes):sumweights 0
scalar SingleCell.ue[0].ipv4.ip packetDropNoInterfaceFound:vector(packetBytes):mean -nan
scalar SingleCell.ue[0].ipv4.ip packetDropNoInterfaceFound:vector(packetBytes):stddev nan
scalar SingleCell.ue[0].ipv4.ip packetDropNoInterfaceFound:vector(packetBytes):min inf
scalar SingleCell.ue[0].ipv4.ip packetDropNoInterfaceFound:vector(packetBytes):max -inf
scalar SingleCell.ue[0].ipv4.ip packetDropNoInterfaceFound:vector(packetBytes):starttime nan
scalar SingleCell.ue[0].ipv4.ip packetDropNoInterfaceFound:vector(packetBytes):endtime nan
scalar SingleCell.ue[0].ipv4.ip packetDropNoRouteFound:vector(packetBytes):count 0
scalar SingleCell.ue[0].ipv4.ip packetDropNoRouteFound:vector(packetBytes):sum 0
scalar SingleCell.ue[0].ipv4.ip packetDropNoRouteFound:vector(packetBytes):sumweights 0
scalar SingleCell.ue[0].ipv4.ip packetDropNoRouteFound:vector(packetBytes):mean -nan
scalar SingleCell.ue[0].ipv4.ip packetDropNoRouteFound:vector(packetBytes):stddev nan
scalar SingleCell.ue[0].ipv4.ip packetDropNoRouteFound:vector(packetBytes):min inf
scalar SingleCell.ue[0].ipv4.ip packetDropNoRouteFound:vector(packetBytes):max -inf
scalar SingleCell.ue[0].ipv4.ip packetDropNoRouteFound:vector(packetBytes):starttime nan
scalar SingleCell.ue[0].ipv4.ip packetDropNoRouteFound:vector(packetBytes):endtime nan
scalar SingleCell.ue[0].ipv4.ip packetDropUndefined:vector(packetBytes):count 0
scalar SingleCell.ue[0].ipv4.ip packetDropUndefined:vector(packetBytes):sum 0
scalar SingleCell.ue[0].ipv4.ip packetDropUndefined:vector(packetBytes):sumweights 0
scalar SingleCell.ue[0].ipv4.ip packetDropUndefined:vector(packetBytes):mean -nan
scalar SingleCell.ue[0].ipv4.ip packetDropUndefined:vector(packetBytes):stddev nan
scalar SingleCell.ue[0].ipv4.ip packetDropUndefined:vector(packetBytes):min inf
scalar SingleCell.ue[0].ipv4.ip packetDropUndefined:vector(packetBytes):max -inf
scalar SingleCell.ue[0].ipv4.ip packetDropUndefined:vector(packetBytes):starttime nan
scalar SingleCell.ue[0].ipv4.ip packetDropUndefined:vector(packetBytes):endtime nan
scalar SingleCell.ue[0].ipv4.arp arpRequestSent:vector(packetBytes):count 0
scalar SingleCell.ue[0].ipv4.arp arpRequestSent:vector(packetBytes):sum 0
scalar SingleCell.ue[0].ipv4.arp arpRequestSent:vector(packetBytes):sumweights 0
scalar SingleCell.ue[0].ipv4.arp arpRequestSent:vector(packetBytes):mean -nan
scalar SingleCell.ue[0].ipv4.arp arpRequestSent:vector(packetBytes):stddev nan
scalar SingleCell.ue[0].ipv4.arp arpRequestSent:vector(packetBytes):min inf
scalar SingleCell.ue[0].ipv4.arp arpRequestSent:vector(packetBytes):max -inf
scalar SingleCell.ue[0].ipv4.arp arpRequestSent:vector(packetBytes):starttime nan
scalar SingleCell.ue[0].ipv4.arp arpRequestSent:vector(packetBytes):endtime nan
scalar SingleCell.ue[0].ipv4.arp arpReplySent:vector(packetBytes):count 0
scalar SingleCell.ue[0].ipv4.arp arpReplySent:vector(packetBytes):sum 0
scalar SingleCell.ue[0].ipv4.arp arpReplySent:vector(packetBytes):sumweights 0
scalar SingleCell.ue[0].ipv4.arp arpReplySent:vector(packetBytes):mean -nan
scalar SingleCell.ue[0].ipv4.arp arpReplySent:vector(packetBytes):stddev nan
scalar SingleCell.ue[0].ipv4.arp arpReplySent:vector(packetBytes):min inf
scalar SingleCell.ue[0].ipv4.arp arpReplySent:vector(packetBytes):max -inf
scalar SingleCell.ue[0].ipv4.arp arpReplySent:vector(packetBytes):starttime nan
scalar SingleCell.ue[0].ipv4.arp arpReplySent:vector(packetBytes):endtime nan
scalar SingleCell.ue[0].udp packetSent:vector(packetBytes):count 0
scalar SingleCell.ue[0].udp packetSent:vector(packetBytes):sum 0
scalar SingleCell.ue[0].udp packetSent:vector(packetBytes):sumweights 0
scalar SingleCell.ue[0].udp packetSent:vector(packetBytes):mean -nan
scalar SingleCell.ue[0].udp packetSent:vector(packetBytes):stddev nan
scalar SingleCell.ue[0].udp packetSent:vector(packetBytes):min inf
scalar SingleCell.ue[0].udp packetSent:vector(packetBytes):max -inf
scalar SingleCell.ue[0].udp packetSent:vector(packetBytes):starttime nan
scalar SingleCell.ue[0].udp packetSent:vector(packetBytes):endtime nan
scalar SingleCell.ue[0].udp packetReceived:vector(packetBytes):count 0
scalar SingleCell.ue[0].udp packetReceived:vector(packetBytes):sum 0
scalar SingleCell.ue[0].udp packetReceived:vector(packetBytes):sumweights 0
scalar SingleCell.ue[0].udp packetReceived:vector(packetBytes):mean -nan
scalar SingleCell.ue[0].udp packetReceived:vector(packetBytes):stddev nan
scalar SingleCell.ue[0].udp packetReceived:vector(packetBytes):min inf
scalar SingleCell.ue[0].udp packetReceived:vector(packetBytes):max -inf
scalar SingleCell.ue[0].udp packetReceived:vector(packetBytes):starttime nan
scalar SingleCell.ue[0].udp packetReceived:vector(packetBytes):endtime nan
scalar SingleCell.ue[0].udp passedUpPk:vector(count):count 0
scalar SingleCell.ue[0].udp passedUpPk:vector(count):sum 0
scalar SingleCell.ue[0].udp passedUpPk:vector(count):sumweights 0
scalar SingleCell.ue[0].udp passedUpPk:vector(count):mean -nan
scalar SingleCell.ue[0].udp passedUpPk:vector(count):stddev nan
scalar SingleCell.ue[0].udp passedUpPk:vector(count):min inf
scalar SingleCell.ue[0].udp passedUpPk:vector(count):max -inf
scalar SingleCell.ue[0].udp passedUpPk:vector(count):starttime nan
scalar SingleCell.ue[0].udp passedUpPk:vector(count):endtime nan
scalar SingleCell.ue[0].udp droppedPkWrongPort:vector(count):count 0
scalar SingleCell.ue[0].udp droppedPkWrongPort:vector(count):sum 0
scalar SingleCell.ue[0].udp droppedPkWrongPort:vector(count):sumweights 0
scalar SingleCell.ue[0].udp droppedPkWrongPort:vector(count):mean -nan
scalar SingleCell.ue[0].udp droppedPkWrongPort:vector(count):stddev nan
scalar SingleCell.ue[0].udp droppedPkWrongPort:vector(count):min inf
scalar SingleCell.ue[0].udp droppedPkWrongPort:vector(count):max -inf
scalar SingleCell.ue[0].udp droppedPkWrongPort:vector(count):starttime nan
scalar SingleCell.ue[0].udp droppedPkWrongPort:vector(count):endtime nan
scalar SingleCell.ue[0].udp droppedPkBadChecksum:vector(count):count 0
scalar SingleCell.ue[0].udp droppedPkBadChecksum:vector(count):sum 0
scalar SingleCell.ue[0].udp droppedPkBadChecksum:vector(count):sumweights 0
scalar SingleCell.ue[0].udp droppedPkBadChecksum:vector(count):mean -nan
scalar SingleCell.ue[0].udp droppedPkBadChecksum:vector(count):stddev nan
scalar SingleCell.ue[0].udp droppedPkBadChecksum:vector(count):min inf
scalar SingleCell.ue[0].udp droppedPkBadChecksum:vector(count):max -inf
scalar SingleCell.ue[0].udp droppedPkBadChecksum:vector(count):starttime nan
scalar SingleCell.ue[0].udp droppedPkBadChecksum:vector(count):endtime nan
scalar SingleCell.ue[0].app[0] cbrFrameDelay:vector:count 0
scalar SingleCell.ue[0].app[0] cbrFrameDelay:vector:sum 0
scalar SingleCell.ue[0].app[0] cbrFrameDelay:vector:sumweights 0
scalar SingleCell.ue[0].app[0] cbrFrameDelay:vector:mean -nan
scalar SingleCell.ue[0].app[0] cbrFrameDelay:vector:stddev nan
scalar SingleCell.ue[0].app[0] cbrFrameDelay:vector:min inf
scalar SingleCell.ue[0].app[0] cbrFrameDelay:vector:max -inf
scalar SingleCell.ue[0].app[0] cbrFrameDelay:vector:starttime nan
scalar SingleCell.ue[0].app[0] cbrFrameDelay:vector:endtime nan
scalar SingleCell.ue[0].app[0] cbrJitter:vector:count 0
scalar SingleCell.ue[0].app[0] cbrJitter:vector:sum 0
scalar SingleCell.ue[0].app[0] cbrJitter:vector:sumweights 0
scalar SingleCell.ue[0].app[0] cbrJitter:vector:mean -nan
scalar SingleCell.ue[0].app[0] cbrJitter:vector:stddev nan
scalar SingleCell.ue[0].app[0] cbrJitter:vector:min inf
scalar SingleCell.ue[0].app[0] cbrJitter:vector:max -inf
scalar SingleCell.ue[0].app[0] cbrJitter:vector:starttime nan
scalar SingleCell.ue[0].app[0] cbrJitter:vector:endtime nan
scalar SingleCell.ue[0].app[0] cbrReceivedBytes:vector:count 0
scalar SingleCell.ue[0].app[0] cbrReceivedBytes:vector:sum 0
scalar SingleCell.ue[0].app[0] cbrReceivedBytes:vector:sumweights 0
scalar SingleCell.ue[0].app[0] cbrReceivedBytes:vector:mean -nan
scalar SingleCell.ue[0].app[0] cbrReceivedBytes:vector:stddev nan
scalar SingleCell.ue[0].app[0] cbrReceivedBytes:vector:min inf
scalar SingleCell.ue[0].app[0] cbrReceivedBytes:vector:max -inf
scalar SingleCell.ue[0].app[0] cbrReceivedBytes:vector:starttime nan
scalar SingleCell.ue[0].app[0] cbrReceivedBytes:vector:endtime nan
scalar SingleCell.ue[0].app[0] cbrRcvdPkt:vector:count 0
scalar SingleCell.ue[0].app[0] cbrRcvdPkt:vector:sum 0
scalar SingleCell.ue[0].app[0] cbrRcvdPkt:vector:sumweights 0
scalar SingleCell.ue[0].app[0] cbrRcvdPkt:vector:mean -nan
scalar SingleCell.ue[0].app[0] cbrRcvdPkt:vector:stddev nan
scalar SingleCell.ue[0].app[0] cbrRcvdPkt:vector:min inf
scalar SingleCell.ue[0].app[0] cbrRcvdPkt:vector:max -inf
scalar SingleCell.ue[0].app[0] cbrRcvdPkt:vector:starttime nan
scalar SingleCell.ue[0].app[0] cbrRcvdPkt:vector:endtime nan

