version 3
run VoIP_DL-UL-0-20260710-11:28:43-707562
attr configname VoIP_DL-UL
attr datetime 20260710-11:28:43
attr datetimef 20260710-112843
attr experiment VoIP_DL-UL
attr inifile omnetpp.ini
attr iterationvars "$numUEs=25, $directions=2"
attr iterationvarsd numUEs=25/directions=2
attr iterationvarsf numUEs=25,directions=2-
attr measurement "$numUEs=25, $directions=2"
attr network simu5g.simulations.lte.networks.SingleCell
attr processid 707562
attr repetition 0
attr replication #0
attr resultdir results
attr runnumber 0
attr seedset 0
itervar directions 2
itervar numUEs 25
config **.param-recording false
config image-path /home/andras/projects/Simu5G-fork/simu5g-fork/images
config output-scalar-file results/omnetpp.ini-VoIP_DL-UL-#0.sca
config output-scalar-precision 17
config output-vector-file results/omnetpp.ini-VoIP_DL-UL-#0.vec
config output-vector-precision 17
config record-eventlog false
config sim-time-limit 20s
config sim-time-limit 20s
config warmup-period 0s
config network simu5g.simulations.lte.networks.SingleCell
config **.numUe 25
config **.vector-recording false
config **.mac.schedulingDisciplineDl "\"MAXCI\""
config **.mac.schedulingDisciplineUl "\"MAXCI\""
config **.rbAllocationType "\"localized\""
config **.ue[*].servingNodeId 1
config *.ue[*].mobility.initFromDisplayString false
config *.ue[*].mobility.initialX uniform(200m,400m)
config *.ue[*].mobility.initialY uniform(200m,400m)
config *.ue[*].mobility.initialZ 0m
config *.ue[*].mobility.speed 0mps
config *.ue[*].mobility.typename LinearMobility
config *.eNB.mobility.initFromDisplayString false
config *.eNB.mobility.initialX 300m
config *.eNB.mobility.initialY 300m
config *.ue[*].numApps 2
config *.server.numApps "2 * 25"
config *.server.app[0..24].typename VoipReceiver
config *.server.app[0..24].localPort 4000+ancestorIndex(0)
config *.ue[*].app[1].packetSize 40B
config *.ue[*].app[1].destAddress "\"server\""
config *.ue[*].app[1].destPort 4000+ancestorIndex(1)
config *.ue[*].app[1].localPort 4088
config *.ue[*].app[1].typename VoipSender
config *.ue[*].app[1].startTime uniform(0s,0.02s)
config *.ue[*].app[0].typename VoipReceiver
config *.ue[*].app[0].localPort 3000
config *.server.app[25..].typename VoipSender
config *.server.app[25..].packetSize 40B
config *.server.app[25..].destAddress "\"ue[\"+string(ancestorIndex(0)-25)+\"]\""
config *.server.app[25..].destPort 3000
config *.server.app[25..].localPort 3088+ancestorIndex(0)
config *.server.app[25..].startTime uniform(0s,0.02s)
config sim-time-limit 20s
config output-scalar-file results/VoIP_DL-UL/0.sca
config output-vector-file results/VoIP_DL-UL/0.vec
config seed-set 0
config **.vector-recording false
config **.mobility.constraintAreaMinZ 0m
config **.mobility.constraintAreaMaxZ 0m
config **.mobility.initFromDisplayString true
config **.numBands 6
config **.ueTxPower 26dBm
config **.eNodeBTxPower 40dBm
config *.configurator.config "xmldoc(\"./demo.xml\")"

scalar SingleCell.server.lo[0].lo rcvdPkFromHl:count 0
scalar SingleCell.server.lo[0].lo rcvdPkFromHl:sum(packetBytes) 0
scalar SingleCell.server.lo[0].lo passedUpPk:count 0
scalar SingleCell.server.lo[0].lo passedUpPk:sum(packetBytes) 0
scalar SingleCell.server.lo[0] packetDropInterfaceDown:count 0
scalar SingleCell.server.lo[0] packetDropInterfaceDown:sum(packetBytes) 0
scalar SingleCell.server.lo[0] packetDropNoCarrier:count 0
scalar SingleCell.server.lo[0] packetDropNoCarrier:sum(packetBytes) 0
scalar SingleCell.server.ppp[0].queue queueLength:last 0
scalar SingleCell.server.ppp[0].queue queueLength:max 0
scalar SingleCell.server.ppp[0].queue queueLength:timeavg 0
scalar SingleCell.server.ppp[0].queue queueBitLength:last 0
scalar SingleCell.server.ppp[0].queue queueBitLength:max 0
scalar SingleCell.server.ppp[0].queue queueBitLength:timeavg 0
scalar SingleCell.server.ppp[0].queue outgoingPackets:count 17250
scalar SingleCell.server.ppp[0].queue outgoingPacketLengths:sum 9384000
scalar SingleCell.server.ppp[0].queue incomingPackets:count 17250
scalar SingleCell.server.ppp[0].queue incomingPacketLengths:sum 9384000
scalar SingleCell.server.ppp[0].queue droppedPacketsQueueOverflow:count 0
scalar SingleCell.server.ppp[0].queue droppedPacketLengthsQueueOverflow:sum 0
scalar SingleCell.server.ppp[0].ppp transmissionState:timeavg 5.1749999999995288e-05
scalar SingleCell.server.ppp[0].ppp rxPkOk:count 17161
scalar SingleCell.server.ppp[0].ppp rxPkOk:sum(packetBytes) 1287075
scalar SingleCell.server.ppp[0].ppp txPk:count 17250
scalar SingleCell.server.ppp[0].ppp txPk:sum(packetBytes) 1293750
scalar SingleCell.server.ppp[0].ppp rcvdPkFromHl:count 17250
scalar SingleCell.server.ppp[0].ppp rcvdPkFromHl:sum(packetBytes) 1173000
scalar SingleCell.server.ppp[0].ppp passedUpPk:count 17161
scalar SingleCell.server.ppp[0].ppp passedUpPk:sum(packetBytes) 1166948
scalar SingleCell.server.ppp[0].ppp packetDropIncorrectlyReceived:count 0
scalar SingleCell.server.ppp[0].ppp packetDropIncorrectlyReceived:sum(packetBytes) 0
scalar SingleCell.server.ppp[0].ppp packetDropInterfaceDown:count 0
scalar SingleCell.server.ppp[0].ppp packetDropInterfaceDown:sum(packetBytes) 0
scalar SingleCell.server.ppp[0] packetDropInterfaceDown:count 0
scalar SingleCell.server.ppp[0] packetDropInterfaceDown:sum(packetBytes) 0
scalar SingleCell.server.ppp[0] packetDropNoCarrier:count 0
scalar SingleCell.server.ppp[0] packetDropNoCarrier:sum(packetBytes) 0
scalar SingleCell.server.ipv4.ip packetDropAddressResolutionFailed:count 0
scalar SingleCell.server.ipv4.ip packetDropAddressResolutionFailed:sum(packetBytes) 0
scalar SingleCell.server.ipv4.ip packetDropHopLimitReached:count 0
scalar SingleCell.server.ipv4.ip packetDropHopLimitReached:sum(packetBytes) 0
scalar SingleCell.server.ipv4.ip packetDropForwardingDisabled:count 0
scalar SingleCell.server.ipv4.ip packetDropForwardingDisabled:sum(packetBytes) 0
scalar SingleCell.server.ipv4.ip packetDropNoInterfaceFound:count 0
scalar SingleCell.server.ipv4.ip packetDropNoInterfaceFound:sum(packetBytes) 0
scalar SingleCell.server.ipv4.ip packetDropNoRouteFound:count 0
scalar SingleCell.server.ipv4.ip packetDropNoRouteFound:sum(packetBytes) 0
scalar SingleCell.server.ipv4.ip packetDropUndefined:count 0
scalar SingleCell.server.ipv4.ip packetDropUndefined:sum(packetBytes) 0
scalar SingleCell.server.ipv4.arp arpResolutionFailed:count 0
scalar SingleCell.server.ipv4.arp arpResolutionCompleted:count 0
scalar SingleCell.server.ipv4.arp arpResolutionInitiated:count 0
scalar SingleCell.server.ipv4.arp arpReplySent:count 0
scalar SingleCell.server.ipv4.arp arpReplySent:sum(packetBytes) 0
scalar SingleCell.server.ipv4.arp arpRequestSent:count 0
scalar SingleCell.server.ipv4.arp arpRequestSent:sum(packetBytes) 0
scalar SingleCell.server.udp packetReceived:count 17161
scalar SingleCell.server.udp packetReceived:sum(packetBytes) 823728
scalar SingleCell.server.udp packetSent:count 17250
scalar SingleCell.server.udp packetSent:sum(packetBytes) 828000
scalar SingleCell.server.udp passedUpPk:count 17161
scalar SingleCell.server.udp droppedPkWrongPort:count 0
scalar SingleCell.server.udp droppedPkBadChecksum:count 0
scalar SingleCell.server.app[0] voipReceivedThroughput:simu5g_rateavg 1454.4174169945566
scalar SingleCell.server.app[0] voipPlayoutLoss:mean 0
scalar SingleCell.server.app[0] voipJitter:mean -nan
scalar SingleCell.server.app[0] voipTaildropLoss:mean 0
scalar SingleCell.server.app[0] voipMos:mean 4.4092858240000004
scalar SingleCell.server.app[0] voipFrameDelay:mean 0.0084833950822316637
scalar SingleCell.server.app[0] voipFrameLoss:mean 0
scalar SingleCell.server.app[0] voipPlayoutDelay:mean 0
scalar SingleCell.server.app[1] voipReceivedThroughput:simu5g_rateavg 1816.6125181303435
scalar SingleCell.server.app[1] voipPlayoutLoss:mean 0
scalar SingleCell.server.app[1] voipJitter:mean -nan
scalar SingleCell.server.app[1] voipTaildropLoss:mean 0
scalar SingleCell.server.app[1] voipMos:mean 4.4092858240000004
scalar SingleCell.server.app[1] voipFrameDelay:mean 0.0086297089780300318
scalar SingleCell.server.app[1] voipFrameLoss:mean 0
scalar SingleCell.server.app[1] voipPlayoutDelay:mean 0
scalar SingleCell.server.app[2] voipReceivedThroughput:simu5g_rateavg 1437.4483074124889
scalar SingleCell.server.app[2] voipPlayoutLoss:mean 0
scalar SingleCell.server.app[2] voipJitter:mean -nan
scalar SingleCell.server.app[2] voipTaildropLoss:mean 0
scalar SingleCell.server.app[2] voipMos:mean 4.4092858240000004
scalar SingleCell.server.app[2] voipFrameDelay:mean 0.0084908329181762991
scalar SingleCell.server.app[2] voipFrameLoss:mean 0
scalar SingleCell.server.app[2] voipPlayoutDelay:mean 0
scalar SingleCell.server.app[3] voipReceivedThroughput:simu5g_rateavg 1835.7344097882933
scalar SingleCell.server.app[3] voipPlayoutLoss:mean 0
scalar SingleCell.server.app[3] voipJitter:mean -nan
scalar SingleCell.server.app[3] voipTaildropLoss:mean 0
scalar SingleCell.server.app[3] voipMos:mean 4.4092858240000004
scalar SingleCell.server.app[3] voipFrameDelay:mean 0.0084452598842631819
scalar SingleCell.server.app[3] voipFrameLoss:mean 0
scalar SingleCell.server.app[3] voipPlayoutDelay:mean 0
scalar SingleCell.server.app[4] voipReceivedThroughput:simu5g_rateavg 1248.2522985405735
scalar SingleCell.server.app[4] voipPlayoutLoss:mean 0.028571428571428571
scalar SingleCell.server.app[4] voipJitter:mean 8.8799999999999948e-08
scalar SingleCell.server.app[4] voipTaildropLoss:mean 0
scalar SingleCell.server.app[4] voipMos:mean 4.1368877340304797
scalar SingleCell.server.app[4] voipFrameDelay:mean 0.0085172439536616244
scalar SingleCell.server.app[4] voipFrameLoss:mean 0
scalar SingleCell.server.app[4] voipPlayoutDelay:mean 8.0727272727272725e-09
scalar SingleCell.server.app[5] voipReceivedThroughput:simu5g_rateavg 1238.6002406176171
scalar SingleCell.server.app[5] voipPlayoutLoss:mean 0.034523809523809526
scalar SingleCell.server.app[5] voipJitter:mean 8.8799999999999922e-08
scalar SingleCell.server.app[5] voipTaildropLoss:mean 0
scalar SingleCell.server.app[5] voipMos:mean 4.1809807326255859
scalar SingleCell.server.app[5] voipFrameDelay:mean 0.0083331228964088188
scalar SingleCell.server.app[5] voipFrameLoss:mean 0
scalar SingleCell.server.app[5] voipPlayoutDelay:mean 1.2685714285714287e-08
scalar SingleCell.server.app[6] voipReceivedThroughput:simu5g_rateavg 892.34860897857561
scalar SingleCell.server.app[6] voipPlayoutLoss:mean 0.050000000000000003
scalar SingleCell.server.app[6] voipJitter:mean 8.8799999999999988e-08
scalar SingleCell.server.app[6] voipTaildropLoss:mean 0
scalar SingleCell.server.app[6] voipMos:mean 4.0884961198746446
scalar SingleCell.server.app[6] voipFrameDelay:mean 0.0084621314362896809
scalar SingleCell.server.app[6] voipFrameLoss:mean 0
scalar SingleCell.server.app[6] voipPlayoutDelay:mean 8.8800000000000008e-09
scalar SingleCell.server.app[7] voipReceivedThroughput:simu5g_rateavg 743.08169988474879
scalar SingleCell.server.app[7] voipPlayoutLoss:mean 0
scalar SingleCell.server.app[7] voipJitter:mean -nan
scalar SingleCell.server.app[7] voipTaildropLoss:mean 0
scalar SingleCell.server.app[7] voipMos:mean 4.4092858240000004
scalar SingleCell.server.app[7] voipFrameDelay:mean 0.0084761226090452162
scalar SingleCell.server.app[7] voipFrameLoss:mean 0
scalar SingleCell.server.app[7] voipPlayoutDelay:mean 0
scalar SingleCell.server.app[8] voipReceivedThroughput:simu5g_rateavg 1203.999912817344
scalar SingleCell.server.app[8] voipPlayoutLoss:mean 0.021739130434782608
scalar SingleCell.server.app[8] voipJitter:mean 8.8800000000000001e-08
scalar SingleCell.server.app[8] voipTaildropLoss:mean 0
scalar SingleCell.server.app[8] voipMos:mean 4.1358002191733902
scalar SingleCell.server.app[8] voipFrameDelay:mean 0.0086162019313570318
scalar SingleCell.server.app[8] voipFrameLoss:mean 0
scalar SingleCell.server.app[8] voipPlayoutDelay:mean 8.8800000000000008e-09
scalar SingleCell.server.app[9] voipReceivedThroughput:simu5g_rateavg 1521.8241170222841
scalar SingleCell.server.app[9] voipPlayoutLoss:mean 0.05921052631578947
scalar SingleCell.server.app[9] voipJitter:mean 9.3116666666666564e-08
scalar SingleCell.server.app[9] voipTaildropLoss:mean 0
scalar SingleCell.server.app[9] voipMos:mean 4.0106481416483781
scalar SingleCell.server.app[9] voipFrameDelay:mean 0.0086267179082924819
scalar SingleCell.server.app[9] voipFrameLoss:mean 0
scalar SingleCell.server.app[9] voipPlayoutDelay:mean 2.22e-08
scalar SingleCell.server.app[10] voipReceivedThroughput:simu5g_rateavg 1418.4487002402609
scalar SingleCell.server.app[10] voipPlayoutLoss:mean 0.067307692307692304
scalar SingleCell.server.app[10] voipJitter:mean 1.1709890109890098e-07
scalar SingleCell.server.app[10] voipTaildropLoss:mean 0
scalar SingleCell.server.app[10] voipMos:mean 4.0053461784133351
scalar SingleCell.server.app[10] voipFrameDelay:mean 0.0086403093965277712
scalar SingleCell.server.app[10] voipFrameLoss:mean 0
scalar SingleCell.server.app[10] voipPlayoutDelay:mean 2.22e-08
scalar SingleCell.server.app[11] voipReceivedThroughput:simu5g_rateavg 1245.4004976884094
scalar SingleCell.server.app[11] voipPlayoutLoss:mean 0.089692101740294516
scalar SingleCell.server.app[11] voipJitter:mean 8.8799999999999908e-08
scalar SingleCell.server.app[11] voipTaildropLoss:mean 0
scalar SingleCell.server.app[11] voipMos:mean 4.039937137697124
scalar SingleCell.server.app[11] voipFrameDelay:mean 0.0082359060221044549
scalar SingleCell.server.app[11] voipFrameLoss:mean 0
scalar SingleCell.server.app[11] voipPlayoutDelay:mean 9.8666666666666673e-09
scalar SingleCell.server.app[12] voipReceivedThroughput:simu5g_rateavg 1621.8889477211437
scalar SingleCell.server.app[12] voipPlayoutLoss:mean 0.0060606060606060606
scalar SingleCell.server.app[12] voipJitter:mean 8.8799999999999988e-08
scalar SingleCell.server.app[12] voipTaildropLoss:mean 0
scalar SingleCell.server.app[12] voipMos:mean 4.2769885693405865
scalar SingleCell.server.app[12] voipFrameDelay:mean 0.0085315370074530456
scalar SingleCell.server.app[12] voipFrameLoss:mean 0
scalar SingleCell.server.app[12] voipPlayoutDelay:mean 8.0727272727272725e-09
scalar SingleCell.server.app[13] voipReceivedThroughput:simu5g_rateavg 963.3438136692605
scalar SingleCell.server.app[13] voipPlayoutLoss:mean 0.018115942028985508
scalar SingleCell.server.app[13] voipJitter:mean 8.8800000000000001e-08
scalar SingleCell.server.app[13] voipTaildropLoss:mean 0
scalar SingleCell.server.app[13] voipMos:mean 4.0716307272410024
scalar SingleCell.server.app[13] voipFrameDelay:mean 0.00868022124248094
scalar SingleCell.server.app[13] voipFrameLoss:mean 0
scalar SingleCell.server.app[13] voipPlayoutDelay:mean 2.96e-08
scalar SingleCell.server.app[14] voipReceivedThroughput:simu5g_rateavg 1255.8748812618153
scalar SingleCell.server.app[14] voipPlayoutLoss:mean 0.11323763955342901
scalar SingleCell.server.app[14] voipJitter:mean 8.8799999999999935e-08
scalar SingleCell.server.app[14] voipTaildropLoss:mean 0
scalar SingleCell.server.app[14] voipMos:mean 3.8147749309502319
scalar SingleCell.server.app[14] voipFrameDelay:mean 0.0083942327881471948
scalar SingleCell.server.app[14] voipFrameLoss:mean 0
scalar SingleCell.server.app[14] voipPlayoutDelay:mean 1.6145454545454545e-08
scalar SingleCell.server.app[15] voipReceivedThroughput:simu5g_rateavg 1466.1694619965347
scalar SingleCell.server.app[15] voipPlayoutLoss:mean 0.030199430199430197
scalar SingleCell.server.app[15] voipJitter:mean 8.8799999999999922e-08
scalar SingleCell.server.app[15] voipTaildropLoss:mean 0
scalar SingleCell.server.app[15] voipMos:mean 4.086623142753842
scalar SingleCell.server.app[15] voipFrameDelay:mean 0.008389043957191181
scalar SingleCell.server.app[15] voipFrameLoss:mean 0
scalar SingleCell.server.app[15] voipPlayoutDelay:mean 9.8666666666666673e-09
scalar SingleCell.server.app[16] voipReceivedThroughput:simu5g_rateavg 1298.6317358314918
scalar SingleCell.server.app[16] voipPlayoutLoss:mean 0.0065569383112538465
scalar SingleCell.server.app[16] voipJitter:mean 8.8800000000000001e-08
scalar SingleCell.server.app[16] voipTaildropLoss:mean 0
scalar SingleCell.server.app[16] voipMos:mean 4.2572672055281933
scalar SingleCell.server.app[16] voipFrameDelay:mean 0.0083144762250594566
scalar SingleCell.server.app[16] voipFrameLoss:mean 0
scalar SingleCell.server.app[16] voipPlayoutDelay:mean 2.96e-08
scalar SingleCell.server.app[17] voipReceivedThroughput:simu5g_rateavg 1374.8595602219443
scalar SingleCell.server.app[17] voipPlayoutLoss:mean 0.074548192771084335
scalar SingleCell.server.app[17] voipJitter:mean 8.8799999999999935e-08
scalar SingleCell.server.app[17] voipTaildropLoss:mean 0
scalar SingleCell.server.app[17] voipMos:mean 3.9052026951908405
scalar SingleCell.server.app[17] voipFrameDelay:mean 0.0082152103467262785
scalar SingleCell.server.app[17] voipFrameLoss:mean 0
scalar SingleCell.server.app[17] voipPlayoutDelay:mean 1.6145454545454545e-08
scalar SingleCell.server.app[18] voipReceivedThroughput:simu5g_rateavg 1436.1579032508841
scalar SingleCell.server.app[18] voipPlayoutLoss:mean 0.049319961084666963
scalar SingleCell.server.app[18] voipJitter:mean 1.1389565217391292e-07
scalar SingleCell.server.app[18] voipTaildropLoss:mean 0
scalar SingleCell.server.app[18] voipMos:mean 3.7111327339702216
scalar SingleCell.server.app[18] voipFrameDelay:mean 0.0085534781526676405
scalar SingleCell.server.app[18] voipFrameLoss:mean 0
scalar SingleCell.server.app[18] voipPlayoutDelay:mean 3.229090909090909e-08
scalar SingleCell.server.app[19] voipReceivedThroughput:simu5g_rateavg 1414.2037636291755
scalar SingleCell.server.app[19] voipPlayoutLoss:mean 0.043269230769230768
scalar SingleCell.server.app[19] voipJitter:mean 8.8799999999999935e-08
scalar SingleCell.server.app[19] voipTaildropLoss:mean 0
scalar SingleCell.server.app[19] voipMos:mean 3.8967353065311019
scalar SingleCell.server.app[19] voipFrameDelay:mean 0.0086708503673679702
scalar SingleCell.server.app[19] voipFrameLoss:mean 0
scalar SingleCell.server.app[19] voipPlayoutDelay:mean 3.9466666666666669e-08
scalar SingleCell.server.app[20] voipReceivedThroughput:simu5g_rateavg 1296.3574276117381
scalar SingleCell.server.app[20] voipPlayoutLoss:mean 0.040678184128667097
scalar SingleCell.server.app[20] voipJitter:mean 8.8799999999999922e-08
scalar SingleCell.server.app[20] voipTaildropLoss:mean 0
scalar SingleCell.server.app[20] voipMos:mean 3.7017926414688973
scalar SingleCell.server.app[20] voipFrameDelay:mean 0.0086141720648046718
scalar SingleCell.server.app[20] voipFrameLoss:mean 0
scalar SingleCell.server.app[20] voipPlayoutDelay:mean 2.22e-08
scalar SingleCell.server.app[21] voipReceivedThroughput:simu5g_rateavg 1750.1601861392255
scalar SingleCell.server.app[21] voipPlayoutLoss:mean 0.022312793589389333
scalar SingleCell.server.app[21] voipJitter:mean 8.8799999999999935e-08
scalar SingleCell.server.app[21] voipTaildropLoss:mean 0
scalar SingleCell.server.app[21] voipMos:mean 3.9712993021836192
scalar SingleCell.server.app[21] voipFrameDelay:mean 0.0083159381496116409
scalar SingleCell.server.app[21] voipFrameLoss:mean 0
scalar SingleCell.server.app[21] voipPlayoutDelay:mean 2.5371428571428573e-08
scalar SingleCell.server.app[22] voipReceivedThroughput:simu5g_rateavg 1921.3487105154115
scalar SingleCell.server.app[22] voipPlayoutLoss:mean 0.01962809917355372
scalar SingleCell.server.app[22] voipJitter:mean 8.8799999999999961e-08
scalar SingleCell.server.app[22] voipTaildropLoss:mean 0
scalar SingleCell.server.app[22] voipMos:mean 3.9983292149762315
scalar SingleCell.server.app[22] voipFrameDelay:mean 0.0085113632281929481
scalar SingleCell.server.app[22] voipFrameLoss:mean 0
scalar SingleCell.server.app[22] voipPlayoutDelay:mean 4.4400000000000001e-08
scalar SingleCell.server.app[23] voipReceivedThroughput:simu5g_rateavg 1293.4247222043718
scalar SingleCell.server.app[23] voipPlayoutLoss:mean 0.10636053060295483
scalar SingleCell.server.app[23] voipJitter:mean 1.0475624999999989e-07
scalar SingleCell.server.app[23] voipTaildropLoss:mean 0
scalar SingleCell.server.app[23] voipMos:mean 3.6940909257120396
scalar SingleCell.server.app[23] voipFrameDelay:mean 0.0082950701106684187
scalar SingleCell.server.app[23] voipFrameLoss:mean 0
scalar SingleCell.server.app[23] voipPlayoutDelay:mean 3.229090909090909e-08
scalar SingleCell.server.app[24] voipReceivedThroughput:simu5g_rateavg 1574.7758735475666
scalar SingleCell.server.app[24] voipPlayoutLoss:mean 0.12078448861705743
scalar SingleCell.server.app[24] voipJitter:mean 8.8799999999999908e-08
scalar SingleCell.server.app[24] voipTaildropLoss:mean 0
scalar SingleCell.server.app[24] voipMos:mean 3.7023907830676022
scalar SingleCell.server.app[24] voipFrameDelay:mean 0.0083202855933363334
scalar SingleCell.server.app[24] voipFrameLoss:mean 0
scalar SingleCell.server.app[24] voipPlayoutDelay:mean 2.22e-08
scalar SingleCell.server.app[25] voipGeneratedThroughput:simu5g_rateavg 969.91758728239768
scalar SingleCell.server.app[26] voipGeneratedThroughput:simu5g_rateavg 1403.0445486391372
scalar SingleCell.server.app[27] voipGeneratedThroughput:simu5g_rateavg 1640.7339796409949
scalar SingleCell.server.app[28] voipGeneratedThroughput:simu5g_rateavg 1287.6627491514298
scalar SingleCell.server.app[29] voipGeneratedThroughput:simu5g_rateavg 1662.3976736007446
scalar SingleCell.server.app[30] voipGeneratedThroughput:simu5g_rateavg 1637.9957790962324
scalar SingleCell.server.app[31] voipGeneratedThroughput:simu5g_rateavg 1334.6523607329716
scalar SingleCell.server.app[32] voipGeneratedThroughput:simu5g_rateavg 1123.6989199661675
scalar SingleCell.server.app[33] voipGeneratedThroughput:simu5g_rateavg 1873.3171074176032
scalar SingleCell.server.app[34] voipGeneratedThroughput:simu5g_rateavg 1663.8812300058082
scalar SingleCell.server.app[35] voipGeneratedThroughput:simu5g_rateavg 1420.500962672922
scalar SingleCell.server.app[36] voipGeneratedThroughput:simu5g_rateavg 388.89094093247456
scalar SingleCell.server.app[37] voipGeneratedThroughput:simu5g_rateavg 1226.7682590207364
scalar SingleCell.server.app[38] voipGeneratedThroughput:simu5g_rateavg 1577.3469477473741
scalar SingleCell.server.app[39] voipGeneratedThroughput:simu5g_rateavg 1328.7315026129304
scalar SingleCell.server.app[40] voipGeneratedThroughput:simu5g_rateavg 1780.0180813293257
scalar SingleCell.server.app[41] voipGeneratedThroughput:simu5g_rateavg 1399.6055919225353
scalar SingleCell.server.app[42] voipGeneratedThroughput:simu5g_rateavg 996.46777474729379
scalar SingleCell.server.app[43] voipGeneratedThroughput:simu5g_rateavg 1893.7444477056299
scalar SingleCell.server.app[44] voipGeneratedThroughput:simu5g_rateavg 1431.5777983367361
scalar SingleCell.server.app[45] voipGeneratedThroughput:simu5g_rateavg 1096.6277731735931
scalar SingleCell.server.app[46] voipGeneratedThroughput:simu5g_rateavg 1371.1743146173756
scalar SingleCell.server.app[47] voipGeneratedThroughput:simu5g_rateavg 1773.8730908943685
scalar SingleCell.server.app[48] voipGeneratedThroughput:simu5g_rateavg 1298.7856125746973
scalar SingleCell.server.app[49] voipGeneratedThroughput:simu5g_rateavg 1659.3352129955028
scalar SingleCell.router.lo[0].lo rcvdPkFromHl:count 0
scalar SingleCell.router.lo[0].lo rcvdPkFromHl:sum(packetBytes) 0
scalar SingleCell.router.lo[0].lo passedUpPk:count 0
scalar SingleCell.router.lo[0].lo passedUpPk:sum(packetBytes) 0
scalar SingleCell.router.lo[0] packetDropInterfaceDown:count 0
scalar SingleCell.router.lo[0] packetDropInterfaceDown:sum(packetBytes) 0
scalar SingleCell.router.lo[0] packetDropNoCarrier:count 0
scalar SingleCell.router.lo[0] packetDropNoCarrier:sum(packetBytes) 0
scalar SingleCell.router.ppp[0].queue queueLength:last 0
scalar SingleCell.router.ppp[0].queue queueLength:max 0
scalar SingleCell.router.ppp[0].queue queueLength:timeavg 0
scalar SingleCell.router.ppp[0].queue queueBitLength:last 0
scalar SingleCell.router.ppp[0].queue queueBitLength:max 0
scalar SingleCell.router.ppp[0].queue queueBitLength:timeavg 0
scalar SingleCell.router.ppp[0].queue outgoingPackets:count 17161
scalar SingleCell.router.ppp[0].queue outgoingPacketLengths:sum 9335584
scalar SingleCell.router.ppp[0].queue incomingPackets:count 17161
scalar SingleCell.router.ppp[0].queue incomingPacketLengths:sum 9335584
scalar SingleCell.router.ppp[0].queue droppedPacketsQueueOverflow:count 0
scalar SingleCell.router.ppp[0].queue droppedPacketLengthsQueueOverflow:sum 0
scalar SingleCell.router.ppp[0].ppp transmissionState:timeavg 5.1482999999994946e-05
scalar SingleCell.router.ppp[0].ppp rxPkOk:count 17250
scalar SingleCell.router.ppp[0].ppp rxPkOk:sum(packetBytes) 1293750
scalar SingleCell.router.ppp[0].ppp txPk:count 17161
scalar SingleCell.router.ppp[0].ppp txPk:sum(packetBytes) 1287075
scalar SingleCell.router.ppp[0].ppp rcvdPkFromHl:count 17161
scalar SingleCell.router.ppp[0].ppp rcvdPkFromHl:sum(packetBytes) 1166948
scalar SingleCell.router.ppp[0].ppp passedUpPk:count 17250
scalar SingleCell.router.ppp[0].ppp passedUpPk:sum(packetBytes) 1173000
scalar SingleCell.router.ppp[0].ppp packetDropIncorrectlyReceived:count 0
scalar SingleCell.router.ppp[0].ppp packetDropIncorrectlyReceived:sum(packetBytes) 0
scalar SingleCell.router.ppp[0].ppp packetDropInterfaceDown:count 0
scalar SingleCell.router.ppp[0].ppp packetDropInterfaceDown:sum(packetBytes) 0
scalar SingleCell.router.ppp[0] packetDropInterfaceDown:count 0
scalar SingleCell.router.ppp[0] packetDropInterfaceDown:sum(packetBytes) 0
scalar SingleCell.router.ppp[0] packetDropNoCarrier:count 0
scalar SingleCell.router.ppp[0] packetDropNoCarrier:sum(packetBytes) 0
scalar SingleCell.router.ppp[1].queue queueLength:last 0
scalar SingleCell.router.ppp[1].queue queueLength:max 0
scalar SingleCell.router.ppp[1].queue queueLength:timeavg 0
scalar SingleCell.router.ppp[1].queue queueBitLength:last 0
scalar SingleCell.router.ppp[1].queue queueBitLength:max 0
scalar SingleCell.router.ppp[1].queue queueBitLength:timeavg 0
scalar SingleCell.router.ppp[1].queue outgoingPackets:count 17250
scalar SingleCell.router.ppp[1].queue outgoingPacketLengths:sum 9384000
scalar SingleCell.router.ppp[1].queue incomingPackets:count 17250
scalar SingleCell.router.ppp[1].queue incomingPacketLengths:sum 9384000
scalar SingleCell.router.ppp[1].queue droppedPacketsQueueOverflow:count 0
scalar SingleCell.router.ppp[1].queue droppedPacketLengthsQueueOverflow:sum 0
scalar SingleCell.router.ppp[1].ppp transmissionState:timeavg 5.1749999999995288e-05
scalar SingleCell.router.ppp[1].ppp rxPkOk:count 17161
scalar SingleCell.router.ppp[1].ppp rxPkOk:sum(packetBytes) 1287075
scalar SingleCell.router.ppp[1].ppp txPk:count 17250
scalar SingleCell.router.ppp[1].ppp txPk:sum(packetBytes) 1293750
scalar SingleCell.router.ppp[1].ppp rcvdPkFromHl:count 17250
scalar SingleCell.router.ppp[1].ppp rcvdPkFromHl:sum(packetBytes) 1173000
scalar SingleCell.router.ppp[1].ppp passedUpPk:count 17161
scalar SingleCell.router.ppp[1].ppp passedUpPk:sum(packetBytes) 1166948
scalar SingleCell.router.ppp[1].ppp packetDropIncorrectlyReceived:count 0
scalar SingleCell.router.ppp[1].ppp packetDropIncorrectlyReceived:sum(packetBytes) 0
scalar SingleCell.router.ppp[1].ppp packetDropInterfaceDown:count 0
scalar SingleCell.router.ppp[1].ppp packetDropInterfaceDown:sum(packetBytes) 0
scalar SingleCell.router.ppp[1] packetDropInterfaceDown:count 0
scalar SingleCell.router.ppp[1] packetDropInterfaceDown:sum(packetBytes) 0
scalar SingleCell.router.ppp[1] packetDropNoCarrier:count 0
scalar SingleCell.router.ppp[1] packetDropNoCarrier:sum(packetBytes) 0
scalar SingleCell.router.ipv4.ip packetDropAddressResolutionFailed:count 0
scalar SingleCell.router.ipv4.ip packetDropAddressResolutionFailed:sum(packetBytes) 0
scalar SingleCell.router.ipv4.ip packetDropHopLimitReached:count 0
scalar SingleCell.router.ipv4.ip packetDropHopLimitReached:sum(packetBytes) 0
scalar SingleCell.router.ipv4.ip packetDropForwardingDisabled:count 0
scalar SingleCell.router.ipv4.ip packetDropForwardingDisabled:sum(packetBytes) 0
scalar SingleCell.router.ipv4.ip packetDropNoInterfaceFound:count 0
scalar SingleCell.router.ipv4.ip packetDropNoInterfaceFound:sum(packetBytes) 0
scalar SingleCell.router.ipv4.ip packetDropNoRouteFound:count 0
scalar SingleCell.router.ipv4.ip packetDropNoRouteFound:sum(packetBytes) 0
scalar SingleCell.router.ipv4.ip packetDropUndefined:count 0
scalar SingleCell.router.ipv4.ip packetDropUndefined:sum(packetBytes) 0
scalar SingleCell.router.ipv4.arp arpResolutionFailed:count 0
scalar SingleCell.router.ipv4.arp arpResolutionCompleted:count 0
scalar SingleCell.router.ipv4.arp arpResolutionInitiated:count 0
scalar SingleCell.router.ipv4.arp arpReplySent:count 0
scalar SingleCell.router.ipv4.arp arpReplySent:sum(packetBytes) 0
scalar SingleCell.router.ipv4.arp arpRequestSent:count 0
scalar SingleCell.router.ipv4.arp arpRequestSent:sum(packetBytes) 0
scalar SingleCell.pgw.lo[0].lo rcvdPkFromHl:count 0
scalar SingleCell.pgw.lo[0].lo rcvdPkFromHl:sum(packetBytes) 0
scalar SingleCell.pgw.lo[0].lo passedUpPk:count 0
scalar SingleCell.pgw.lo[0].lo passedUpPk:sum(packetBytes) 0
scalar SingleCell.pgw.lo[0] packetDropInterfaceDown:count 0
scalar SingleCell.pgw.lo[0] packetDropInterfaceDown:sum(packetBytes) 0
scalar SingleCell.pgw.lo[0] packetDropNoCarrier:count 0
scalar SingleCell.pgw.lo[0] packetDropNoCarrier:sum(packetBytes) 0
scalar SingleCell.pgw.ppp[0].queue queueLength:last 0
scalar SingleCell.pgw.ppp[0].queue queueLength:max 0
scalar SingleCell.pgw.ppp[0].queue queueLength:timeavg 0
scalar SingleCell.pgw.ppp[0].queue queueBitLength:last 0
scalar SingleCell.pgw.ppp[0].queue queueBitLength:max 0
scalar SingleCell.pgw.ppp[0].queue queueBitLength:timeavg 0
scalar SingleCell.pgw.ppp[0].queue outgoingPackets:count 17250
scalar SingleCell.pgw.ppp[0].queue outgoingPacketLengths:sum 14352000
scalar SingleCell.pgw.ppp[0].queue incomingPackets:count 17250
scalar SingleCell.pgw.ppp[0].queue incomingPacketLengths:sum 14352000
scalar SingleCell.pgw.ppp[0].queue droppedPacketsQueueOverflow:count 0
scalar SingleCell.pgw.ppp[0].queue droppedPacketLengthsQueueOverflow:sum 0
scalar SingleCell.pgw.ppp[0].ppp transmissionState:timeavg 7.6589999999982406e-05
scalar SingleCell.pgw.ppp[0].ppp rxPkOk:count 17161
scalar SingleCell.pgw.ppp[0].ppp rxPkOk:sum(packetBytes) 1904871
scalar SingleCell.pgw.ppp[0].ppp txPk:count 17250
scalar SingleCell.pgw.ppp[0].ppp txPk:sum(packetBytes) 1914750
scalar SingleCell.pgw.ppp[0].ppp rcvdPkFromHl:count 17250
scalar SingleCell.pgw.ppp[0].ppp rcvdPkFromHl:sum(packetBytes) 1794000
scalar SingleCell.pgw.ppp[0].ppp passedUpPk:count 17161
scalar SingleCell.pgw.ppp[0].ppp passedUpPk:sum(packetBytes) 1784744
scalar SingleCell.pgw.ppp[0].ppp packetDropIncorrectlyReceived:count 0
scalar SingleCell.pgw.ppp[0].ppp packetDropIncorrectlyReceived:sum(packetBytes) 0
scalar SingleCell.pgw.ppp[0].ppp packetDropInterfaceDown:count 0
scalar SingleCell.pgw.ppp[0].ppp packetDropInterfaceDown:sum(packetBytes) 0
scalar SingleCell.pgw.ppp[0] packetDropInterfaceDown:count 0
scalar SingleCell.pgw.ppp[0] packetDropInterfaceDown:sum(packetBytes) 0
scalar SingleCell.pgw.ppp[0] packetDropNoCarrier:count 0
scalar SingleCell.pgw.ppp[0] packetDropNoCarrier:sum(packetBytes) 0
scalar SingleCell.pgw.ipv4.ip packetDropAddressResolutionFailed:count 0
scalar SingleCell.pgw.ipv4.ip packetDropAddressResolutionFailed:sum(packetBytes) 0
scalar SingleCell.pgw.ipv4.ip packetDropHopLimitReached:count 0
scalar SingleCell.pgw.ipv4.ip packetDropHopLimitReached:sum(packetBytes) 0
scalar SingleCell.pgw.ipv4.ip packetDropForwardingDisabled:count 0
scalar SingleCell.pgw.ipv4.ip packetDropForwardingDisabled:sum(packetBytes) 0
scalar SingleCell.pgw.ipv4.ip packetDropNoInterfaceFound:count 0
scalar SingleCell.pgw.ipv4.ip packetDropNoInterfaceFound:sum(packetBytes) 0
scalar SingleCell.pgw.ipv4.ip packetDropNoRouteFound:count 0
scalar SingleCell.pgw.ipv4.ip packetDropNoRouteFound:sum(packetBytes) 0
scalar SingleCell.pgw.ipv4.ip packetDropUndefined:count 0
scalar SingleCell.pgw.ipv4.ip packetDropUndefined:sum(packetBytes) 0
scalar SingleCell.pgw.ipv4.arp arpResolutionFailed:count 0
scalar SingleCell.pgw.ipv4.arp arpResolutionCompleted:count 0
scalar SingleCell.pgw.ipv4.arp arpResolutionInitiated:count 0
scalar SingleCell.pgw.ipv4.arp arpReplySent:count 0
scalar SingleCell.pgw.ipv4.arp arpReplySent:sum(packetBytes) 0
scalar SingleCell.pgw.ipv4.arp arpRequestSent:count 0
scalar SingleCell.pgw.ipv4.arp arpRequestSent:sum(packetBytes) 0
scalar SingleCell.pgw.pppIf.queue queueLength:last 0
scalar SingleCell.pgw.pppIf.queue queueLength:max 0
scalar SingleCell.pgw.pppIf.queue queueLength:timeavg 0
scalar SingleCell.pgw.pppIf.queue queueBitLength:last 0
scalar SingleCell.pgw.pppIf.queue queueBitLength:max 0
scalar SingleCell.pgw.pppIf.queue queueBitLength:timeavg 0
scalar SingleCell.pgw.pppIf.queue outgoingPackets:count 17161
scalar SingleCell.pgw.pppIf.queue outgoingPacketLengths:sum 9335584
scalar SingleCell.pgw.pppIf.queue incomingPackets:count 17161
scalar SingleCell.pgw.pppIf.queue incomingPacketLengths:sum 9335584
scalar SingleCell.pgw.pppIf.queue droppedPacketsQueueOverflow:count 0
scalar SingleCell.pgw.pppIf.queue droppedPacketLengthsQueueOverflow:sum 0
scalar SingleCell.pgw.pppIf.ppp transmissionState:timeavg 5.1482999999994946e-05
scalar SingleCell.pgw.pppIf.ppp rxPkOk:count 17250
scalar SingleCell.pgw.pppIf.ppp rxPkOk:sum(packetBytes) 1293750
scalar SingleCell.pgw.pppIf.ppp txPk:count 17161
scalar SingleCell.pgw.pppIf.ppp txPk:sum(packetBytes) 1287075
scalar SingleCell.pgw.pppIf.ppp rcvdPkFromHl:count 17161
scalar SingleCell.pgw.pppIf.ppp rcvdPkFromHl:sum(packetBytes) 1166948
scalar SingleCell.pgw.pppIf.ppp passedUpPk:count 17250
scalar SingleCell.pgw.pppIf.ppp passedUpPk:sum(packetBytes) 1173000
scalar SingleCell.pgw.pppIf.ppp packetDropIncorrectlyReceived:count 0
scalar SingleCell.pgw.pppIf.ppp packetDropIncorrectlyReceived:sum(packetBytes) 0
scalar SingleCell.pgw.pppIf.ppp packetDropInterfaceDown:count 0
scalar SingleCell.pgw.pppIf.ppp packetDropInterfaceDown:sum(packetBytes) 0
scalar SingleCell.pgw.pppIf packetDropInterfaceDown:count 0
scalar SingleCell.pgw.pppIf packetDropInterfaceDown:sum(packetBytes) 0
scalar SingleCell.pgw.pppIf packetDropNoCarrier:count 0
scalar SingleCell.pgw.pppIf packetDropNoCarrier:sum(packetBytes) 0
scalar SingleCell.pgw.udp packetReceived:count 17161
scalar SingleCell.pgw.udp packetReceived:sum(packetBytes) 1441524
scalar SingleCell.pgw.udp packetSent:count 17250
scalar SingleCell.pgw.udp packetSent:sum(packetBytes) 1449000
scalar SingleCell.pgw.udp passedUpPk:count 17161
scalar SingleCell.pgw.udp droppedPkWrongPort:count 0
scalar SingleCell.pgw.udp droppedPkBadChecksum:count 0
scalar SingleCell.eNB.cellularNic.pdcp sentPacketToLowerLayer:count 17250
scalar SingleCell.eNB.cellularNic.pdcp sentPacketToLowerLayer:sum(packetBytes) 1190250
scalar SingleCell.eNB.cellularNic.pdcp sentPacketToUpperLayer:count 17162
scalar SingleCell.eNB.cellularNic.pdcp sentPacketToUpperLayer:sum(packetBytes) 1167016
scalar SingleCell.eNB.cellularNic.pdcp receivedPacketFromLowerLayer:count 17162
scalar SingleCell.eNB.cellularNic.pdcp receivedPacketFromLowerLayer:sum(packetBytes) 1184178
scalar SingleCell.eNB.cellularNic.pdcp receivedPacketFromUpperLayer:count 17250
scalar SingleCell.eNB.cellularNic.pdcp receivedPacketFromUpperLayer:sum(packetBytes) 1173000
scalar SingleCell.eNB.cellularNic.rlc.tm rlcPacketLossUl:mean -nan
scalar SingleCell.eNB.cellularNic.rlc.tm rlcPacketLossUl:sum 0
scalar SingleCell.eNB.cellularNic.rlc.tm rlcPacketLossDl:mean -nan
scalar SingleCell.eNB.cellularNic.rlc.tm rlcPacketLossDl:sum 0
scalar SingleCell.eNB.cellularNic.rlc.tm sentPacketToLowerLayer:count 0
scalar SingleCell.eNB.cellularNic.rlc.tm sentPacketToLowerLayer:sum(packetBytes) 0
scalar SingleCell.eNB.cellularNic.rlc.tm sentPacketToUpperLayer:count 0
scalar SingleCell.eNB.cellularNic.rlc.tm sentPacketToUpperLayer:sum(packetBytes) 0
scalar SingleCell.eNB.cellularNic.rlc.tm receivedPacketFromLowerLayer:count 0
scalar SingleCell.eNB.cellularNic.rlc.tm receivedPacketFromLowerLayer:sum(packetBytes) 0
scalar SingleCell.eNB.cellularNic.rlc.tm receivedPacketFromUpperLayer:count 0
scalar SingleCell.eNB.cellularNic.rlc.tm receivedPacketFromUpperLayer:sum(packetBytes) 0
scalar SingleCell.eNB.cellularNic.rlc.um rlcCellThroughputUl:simu5g_rateavg 122785.82867383209
scalar SingleCell.eNB.cellularNic.rlc.um rlcCellThroughputDl:simu5g_rateavg 122791.82790988745
scalar SingleCell.eNB.cellularNic.rlc.um rlcPduThroughputUl:simu5g_rateavg -nan
scalar SingleCell.eNB.cellularNic.rlc.um rlcPduThroughputDl:simu5g_rateavg -nan
scalar SingleCell.eNB.cellularNic.rlc.um rlcPduDelayUl:mean -nan
scalar SingleCell.eNB.cellularNic.rlc.um rlcPduDelayDl:mean -nan
scalar SingleCell.eNB.cellularNic.rlc.um rlcThroughputUl:simu5g_rateavg -nan
scalar SingleCell.eNB.cellularNic.rlc.um rlcThroughputDl:simu5g_rateavg -nan
scalar SingleCell.eNB.cellularNic.rlc.um rlcDelayUl:mean -nan
scalar SingleCell.eNB.cellularNic.rlc.um rlcDelayDl:mean -nan
scalar SingleCell.eNB.cellularNic.rlc.um sentPacketToLowerLayer:count 17250
scalar SingleCell.eNB.cellularNic.rlc.um sentPacketToLowerLayer:sum(packetBytes) 1224750
scalar SingleCell.eNB.cellularNic.rlc.um sentPacketToUpperLayer:count 17162
scalar SingleCell.eNB.cellularNic.rlc.um sentPacketToUpperLayer:sum(packetBytes) 1184178
scalar SingleCell.eNB.cellularNic.rlc.um receivedPacketFromLowerLayer:count 17162
scalar SingleCell.eNB.cellularNic.rlc.um receivedPacketFromLowerLayer:sum(packetBytes) 1218502
scalar SingleCell.eNB.cellularNic.rlc.um receivedPacketFromUpperLayer:count 17250
scalar SingleCell.eNB.cellularNic.rlc.um receivedPacketFromUpperLayer:sum(packetBytes) 1190250
scalar SingleCell.eNB.cellularNic.rlc.am rlcPacketLossTotal:mean -nan
scalar SingleCell.eNB.cellularNic.rlc.am rlcCellThroughputUl:simu5g_rateavg -nan
scalar SingleCell.eNB.cellularNic.rlc.am rlcCellThroughputDl:simu5g_rateavg -nan
scalar SingleCell.eNB.cellularNic.rlc.am rlcPduThroughputUl:simu5g_rateavg -nan
scalar SingleCell.eNB.cellularNic.rlc.am rlcPduThroughputDl:simu5g_rateavg -nan
scalar SingleCell.eNB.cellularNic.rlc.am rlcPduDelayUl:mean -nan
scalar SingleCell.eNB.cellularNic.rlc.am rlcPduDelayDl:mean -nan
scalar SingleCell.eNB.cellularNic.rlc.am rlcThroughputUl:simu5g_rateavg -nan
scalar SingleCell.eNB.cellularNic.rlc.am rlcThroughputDl:simu5g_rateavg -nan
scalar SingleCell.eNB.cellularNic.rlc.am rlcDelayUl:mean -nan
scalar SingleCell.eNB.cellularNic.rlc.am rlcDelayDl:mean -nan
scalar SingleCell.eNB.cellularNic.rlc.am rlcPduPacketLossUl:mean -nan
scalar SingleCell.eNB.cellularNic.rlc.am rlcPduPacketLossDl:mean -nan
scalar SingleCell.eNB.cellularNic.rlc.am rlcPacketLossUl:mean -nan
scalar SingleCell.eNB.cellularNic.rlc.am rlcPacketLossDl:mean -nan
scalar SingleCell.eNB.cellularNic.rlc.am rlcCellPacketLossUl:mean -nan
scalar SingleCell.eNB.cellularNic.rlc.am rlcCellPacketLossDl:mean -nan
scalar SingleCell.eNB.cellularNic.mac avgServedBlocksUl:mean 0.85824999999999996
scalar SingleCell.eNB.cellularNic.mac avgServedBlocksDl:mean 0.86250000000000004
scalar SingleCell.eNB.cellularNic.mac harqTxAttemptsUl:mean -nan
scalar SingleCell.eNB.cellularNic.mac harqTxAttemptsDl:mean -nan
scalar SingleCell.eNB.cellularNic.mac harqErrorRate_4th_Ul:mean -nan
scalar SingleCell.eNB.cellularNic.mac harqErrorRate_4th_Dl:mean -nan
scalar SingleCell.eNB.cellularNic.mac harqErrorRate_3rd_Ul:mean -nan
scalar SingleCell.eNB.cellularNic.mac harqErrorRate_3rd_Dl:mean -nan
scalar SingleCell.eNB.cellularNic.mac harqErrorRate_2nd_Ul:mean -nan
scalar SingleCell.eNB.cellularNic.mac harqErrorRate_2nd_Dl:mean -nan
scalar SingleCell.eNB.cellularNic.mac harqErrorRate_1st_Ul:mean -nan
scalar SingleCell.eNB.cellularNic.mac harqErrorRate_1st_Dl:mean -nan
scalar SingleCell.eNB.cellularNic.mac harqErrorRateUl:mean -nan
scalar SingleCell.eNB.cellularNic.mac harqErrorRateDl:mean -nan
scalar SingleCell.eNB.cellularNic.mac macCellPacketLossUl:mean 0
scalar SingleCell.eNB.cellularNic.mac macCellPacketLossDl:mean 0
scalar SingleCell.eNB.cellularNic.mac macPacketLossUl:mean -nan
scalar SingleCell.eNB.cellularNic.mac macPacketLossDl:mean -nan
scalar SingleCell.eNB.cellularNic.mac macThroughputUl:simu5g_rateavg -nan
scalar SingleCell.eNB.cellularNic.mac macThroughputDl:simu5g_rateavg -nan
scalar SingleCell.eNB.cellularNic.mac macDelayUl:mean -nan
scalar SingleCell.eNB.cellularNic.mac macDelayDl:mean -nan
scalar SingleCell.eNB.cellularNic.mac macCellThroughputUl:simu5g_rateavg 129903.84772738721
scalar SingleCell.eNB.cellularNic.mac macCellThroughputDl:simu5g_rateavg 129910.19474524408
scalar SingleCell.eNB.cellularNic.mac sentPacketToLowerLayer:count 68743
scalar SingleCell.eNB.cellularNic.mac sentPacketToLowerLayer:sum(packetBytes) 1310743
scalar SingleCell.eNB.cellularNic.mac sentPacketToUpperLayer:count 34412
scalar SingleCell.eNB.cellularNic.mac sentPacketToUpperLayer:sum(packetBytes) 1235752
scalar SingleCell.eNB.cellularNic.mac receivedPacketFromLowerLayer:count 134927
scalar SingleCell.eNB.cellularNic.mac receivedPacketFromLowerLayer:sum(packetBytes) 1370735
scalar SingleCell.eNB.cellularNic.mac receivedPacketFromUpperLayer:count 34500
scalar SingleCell.eNB.cellularNic.mac receivedPacketFromUpperLayer:sum(packetBytes) 2415000
scalar SingleCell.eNB.cellularNic.mac macBufferOverFlowD2D:mean -nan
scalar SingleCell.eNB.cellularNic.mac macBufferOverFlowUl:mean -nan
scalar SingleCell.eNB.cellularNic.mac macBufferOverFlowDl:mean -nan
scalar SingleCell.eNB.cellularNic.channelModel[0] measuredSinrUl:mean -nan
scalar SingleCell.eNB.cellularNic.channelModel[0] measuredSinrDl:mean -nan
scalar SingleCell.eNB.cellularNic.channelModel[0] rcvdSinrD2D:mean -nan
scalar SingleCell.eNB.cellularNic.channelModel[0] rcvdSinrUl:mean -nan
scalar SingleCell.eNB.cellularNic.channelModel[0] rcvdSinrDl:mean -nan
scalar SingleCell.eNB.cellularNic packetDropInterfaceDown:count 0
scalar SingleCell.eNB.cellularNic packetDropInterfaceDown:sum(packetBytes) 0
scalar SingleCell.eNB.cellularNic packetDropNoCarrier:count 0
scalar SingleCell.eNB.cellularNic packetDropNoCarrier:sum(packetBytes) 0
scalar SingleCell.eNB.pppIf.queue queueLength:last 0
scalar SingleCell.eNB.pppIf.queue queueLength:max 3
scalar SingleCell.eNB.pppIf.queue queueLength:timeavg 2.7785519999999825e-05
scalar SingleCell.eNB.pppIf.queue queueBitLength:last 0
scalar SingleCell.eNB.pppIf.queue queueBitLength:max 2496
scalar SingleCell.eNB.pppIf.queue queueBitLength:timeavg 0.023117552639998772
scalar SingleCell.eNB.pppIf.queue outgoingPackets:count 17162
scalar SingleCell.eNB.pppIf.queue outgoingPacketLengths:sum 14278784
scalar SingleCell.eNB.pppIf.queue incomingPackets:count 17162
scalar SingleCell.eNB.pppIf.queue incomingPacketLengths:sum 14278784
scalar SingleCell.eNB.pppIf.queue droppedPacketsQueueOverflow:count 0
scalar SingleCell.eNB.pppIf.queue droppedPacketLengthsQueueOverflow:sum 0
scalar SingleCell.eNB.pppIf.ppp transmissionState:timeavg 7.6194839999982748e-05
scalar SingleCell.eNB.pppIf.ppp rxPkOk:count 17250
scalar SingleCell.eNB.pppIf.ppp rxPkOk:sum(packetBytes) 1914750
scalar SingleCell.eNB.pppIf.ppp txPk:count 17162
scalar SingleCell.eNB.pppIf.ppp txPk:sum(packetBytes) 1904982
scalar SingleCell.eNB.pppIf.ppp rcvdPkFromHl:count 17162
scalar SingleCell.eNB.pppIf.ppp rcvdPkFromHl:sum(packetBytes) 1784848
scalar SingleCell.eNB.pppIf.ppp passedUpPk:count 17250
scalar SingleCell.eNB.pppIf.ppp passedUpPk:sum(packetBytes) 1794000
scalar SingleCell.eNB.pppIf.ppp packetDropIncorrectlyReceived:count 0
scalar SingleCell.eNB.pppIf.ppp packetDropIncorrectlyReceived:sum(packetBytes) 0
scalar SingleCell.eNB.pppIf.ppp packetDropInterfaceDown:count 0
scalar SingleCell.eNB.pppIf.ppp packetDropInterfaceDown:sum(packetBytes) 0
scalar SingleCell.eNB.pppIf packetDropInterfaceDown:count 0
scalar SingleCell.eNB.pppIf packetDropInterfaceDown:sum(packetBytes) 0
scalar SingleCell.eNB.pppIf packetDropNoCarrier:count 0
scalar SingleCell.eNB.pppIf packetDropNoCarrier:sum(packetBytes) 0
scalar SingleCell.eNB.pppMEHostIf.queue queueLength:last 0
scalar SingleCell.eNB.pppMEHostIf.queue queueLength:max 0
scalar SingleCell.eNB.pppMEHostIf.queue queueLength:timeavg 0
scalar SingleCell.eNB.pppMEHostIf.queue queueBitLength:last 0
scalar SingleCell.eNB.pppMEHostIf.queue queueBitLength:max 0
scalar SingleCell.eNB.pppMEHostIf.queue queueBitLength:timeavg 0
scalar SingleCell.eNB.pppMEHostIf.queue outgoingPackets:count 0
scalar SingleCell.eNB.pppMEHostIf.queue outgoingPacketLengths:sum 0
scalar SingleCell.eNB.pppMEHostIf.queue incomingPackets:count 0
scalar SingleCell.eNB.pppMEHostIf.queue incomingPacketLengths:sum 0
scalar SingleCell.eNB.pppMEHostIf.queue droppedPacketsQueueOverflow:count 0
scalar SingleCell.eNB.pppMEHostIf.queue droppedPacketLengthsQueueOverflow:sum 0
scalar SingleCell.eNB.pppMEHostIf.ppp transmissionState:timeavg 0
scalar SingleCell.eNB.pppMEHostIf.ppp rxPkOk:count 0
scalar SingleCell.eNB.pppMEHostIf.ppp rxPkOk:sum(packetBytes) 0
scalar SingleCell.eNB.pppMEHostIf.ppp txPk:count 0
scalar SingleCell.eNB.pppMEHostIf.ppp txPk:sum(packetBytes) 0
scalar SingleCell.eNB.pppMEHostIf.ppp rcvdPkFromHl:count 0
scalar SingleCell.eNB.pppMEHostIf.ppp rcvdPkFromHl:sum(packetBytes) 0
scalar SingleCell.eNB.pppMEHostIf.ppp passedUpPk:count 0
scalar SingleCell.eNB.pppMEHostIf.ppp passedUpPk:sum(packetBytes) 0
scalar SingleCell.eNB.pppMEHostIf.ppp packetDropIncorrectlyReceived:count 0
scalar SingleCell.eNB.pppMEHostIf.ppp packetDropIncorrectlyReceived:sum(packetBytes) 0
scalar SingleCell.eNB.pppMEHostIf.ppp packetDropInterfaceDown:count 0
scalar SingleCell.eNB.pppMEHostIf.ppp packetDropInterfaceDown:sum(packetBytes) 0
scalar SingleCell.eNB.pppMEHostIf packetDropInterfaceDown:count 0
scalar SingleCell.eNB.pppMEHostIf packetDropInterfaceDown:sum(packetBytes) 0
scalar SingleCell.eNB.pppMEHostIf packetDropNoCarrier:count 0
scalar SingleCell.eNB.pppMEHostIf packetDropNoCarrier:sum(packetBytes) 0
scalar SingleCell.eNB.ipv4.ip packetDropAddressResolutionFailed:count 0
scalar SingleCell.eNB.ipv4.ip packetDropAddressResolutionFailed:sum(packetBytes) 0
scalar SingleCell.eNB.ipv4.ip packetDropHopLimitReached:count 0
scalar SingleCell.eNB.ipv4.ip packetDropHopLimitReached:sum(packetBytes) 0
scalar SingleCell.eNB.ipv4.ip packetDropForwardingDisabled:count 0
scalar SingleCell.eNB.ipv4.ip packetDropForwardingDisabled:sum(packetBytes) 0
scalar SingleCell.eNB.ipv4.ip packetDropNoInterfaceFound:count 0
scalar SingleCell.eNB.ipv4.ip packetDropNoInterfaceFound:sum(packetBytes) 0
scalar SingleCell.eNB.ipv4.ip packetDropNoRouteFound:count 0
scalar SingleCell.eNB.ipv4.ip packetDropNoRouteFound:sum(packetBytes) 0
scalar SingleCell.eNB.ipv4.ip packetDropUndefined:count 0
scalar SingleCell.eNB.ipv4.ip packetDropUndefined:sum(packetBytes) 0
scalar SingleCell.eNB.ipv4.arp arpResolutionFailed:count 0
scalar SingleCell.eNB.ipv4.arp arpResolutionCompleted:count 0
scalar SingleCell.eNB.ipv4.arp arpResolutionInitiated:count 0
scalar SingleCell.eNB.ipv4.arp arpReplySent:count 0
scalar SingleCell.eNB.ipv4.arp arpReplySent:sum(packetBytes) 0
scalar SingleCell.eNB.ipv4.arp arpRequestSent:count 0
scalar SingleCell.eNB.ipv4.arp arpRequestSent:sum(packetBytes) 0
scalar SingleCell.eNB.udp packetReceived:count 17250
scalar SingleCell.eNB.udp packetReceived:sum(packetBytes) 1449000
scalar SingleCell.eNB.udp packetSent:count 17162
scalar SingleCell.eNB.udp packetSent:sum(packetBytes) 1441608
scalar SingleCell.eNB.udp passedUpPk:count 17250
scalar SingleCell.eNB.udp droppedPkWrongPort:count 0
scalar SingleCell.eNB.udp droppedPkBadChecksum:count 0
scalar SingleCell.ue[0].lo[0].lo rcvdPkFromHl:count 0
scalar SingleCell.ue[0].lo[0].lo rcvdPkFromHl:sum(packetBytes) 0
scalar SingleCell.ue[0].lo[0].lo passedUpPk:count 0
scalar SingleCell.ue[0].lo[0].lo passedUpPk:sum(packetBytes) 0
scalar SingleCell.ue[0].lo[0] packetDropInterfaceDown:count 0
scalar SingleCell.ue[0].lo[0] packetDropInterfaceDown:sum(packetBytes) 0
scalar SingleCell.ue[0].lo[0] packetDropNoCarrier:count 0
scalar SingleCell.ue[0].lo[0] packetDropNoCarrier:sum(packetBytes) 0
scalar SingleCell.ue[0].cellularNic.pdcp sentPacketToLowerLayer:count 761
scalar SingleCell.ue[0].cellularNic.pdcp sentPacketToLowerLayer:sum(packetBytes) 52509
scalar SingleCell.ue[0].cellularNic.pdcp sentPacketToUpperLayer:count 654
scalar SingleCell.ue[0].cellularNic.pdcp sentPacketToUpperLayer:sum(packetBytes) 44472
scalar SingleCell.ue[0].cellularNic.pdcp receivedPacketFromLowerLayer:count 654
scalar SingleCell.ue[0].cellularNic.pdcp receivedPacketFromLowerLayer:sum(packetBytes) 45126
scalar SingleCell.ue[0].cellularNic.pdcp receivedPacketFromUpperLayer:count 761
scalar SingleCell.ue[0].cellularNic.pdcp receivedPacketFromUpperLayer:sum(packetBytes) 51748
scalar SingleCell.ue[0].cellularNic.rlc.tm rlcPacketLossUl:mean -nan
scalar SingleCell.ue[0].cellularNic.rlc.tm rlcPacketLossUl:sum 0
scalar SingleCell.ue[0].cellularNic.rlc.tm rlcPacketLossDl:mean -nan
scalar SingleCell.ue[0].cellularNic.rlc.tm rlcPacketLossDl:sum 0
scalar SingleCell.ue[0].cellularNic.rlc.tm sentPacketToLowerLayer:count 0
scalar SingleCell.ue[0].cellularNic.rlc.tm sentPacketToLowerLayer:sum(packetBytes) 0
scalar SingleCell.ue[0].cellularNic.rlc.tm sentPacketToUpperLayer:count 0
scalar SingleCell.ue[0].cellularNic.rlc.tm sentPacketToUpperLayer:sum(packetBytes) 0
scalar SingleCell.ue[0].cellularNic.rlc.tm receivedPacketFromLowerLayer:count 0
scalar SingleCell.ue[0].cellularNic.rlc.tm receivedPacketFromLowerLayer:sum(packetBytes) 0
scalar SingleCell.ue[0].cellularNic.rlc.tm receivedPacketFromUpperLayer:count 0
scalar SingleCell.ue[0].cellularNic.rlc.tm receivedPacketFromUpperLayer:sum(packetBytes) 0
scalar SingleCell.ue[0].cellularNic.rlc.um rlcCellThroughputUl:simu5g_rateavg -nan
scalar SingleCell.ue[0].cellularNic.rlc.um rlcCellThroughputDl:simu5g_rateavg -nan
scalar SingleCell.ue[0].cellularNic.rlc.um rlcPduThroughputUl:simu5g_rateavg 0
scalar SingleCell.ue[0].cellularNic.rlc.um rlcPduThroughputDl:simu5g_rateavg 0
scalar SingleCell.ue[0].cellularNic.rlc.um rlcPduDelayUl:mean 0.0040000000000000027
scalar SingleCell.ue[0].cellularNic.rlc.um rlcPduDelayDl:mean 0.0040000000000000027
scalar SingleCell.ue[0].cellularNic.rlc.um rlcThroughputUl:simu5g_rateavg 2508.8703548361664
scalar SingleCell.ue[0].cellularNic.rlc.um rlcThroughputDl:simu5g_rateavg 1670.1686118054361
scalar SingleCell.ue[0].cellularNic.rlc.um rlcDelayUl:mean 0.0084830362822315517
scalar SingleCell.ue[0].cellularNic.rlc.um rlcDelayDl:mean 0.0045386177011651841
scalar SingleCell.ue[0].cellularNic.rlc.um sentPacketToLowerLayer:count 761
scalar SingleCell.ue[0].cellularNic.rlc.um sentPacketToLowerLayer:sum(packetBytes) 54031
scalar SingleCell.ue[0].cellularNic.rlc.um sentPacketToUpperLayer:count 654
scalar SingleCell.ue[0].cellularNic.rlc.um sentPacketToUpperLayer:sum(packetBytes) 45126
scalar SingleCell.ue[0].cellularNic.rlc.um receivedPacketFromLowerLayer:count 654
scalar SingleCell.ue[0].cellularNic.rlc.um receivedPacketFromLowerLayer:sum(packetBytes) 46434
scalar SingleCell.ue[0].cellularNic.rlc.um receivedPacketFromUpperLayer:count 761
scalar SingleCell.ue[0].cellularNic.rlc.um receivedPacketFromUpperLayer:sum(packetBytes) 52509
scalar SingleCell.ue[0].cellularNic.rlc.am rlcPacketLossTotal:mean -nan
scalar SingleCell.ue[0].cellularNic.rlc.am rlcCellThroughputUl:simu5g_rateavg -nan
scalar SingleCell.ue[0].cellularNic.rlc.am rlcCellThroughputDl:simu5g_rateavg -nan
scalar SingleCell.ue[0].cellularNic.rlc.am rlcPduThroughputUl:simu5g_rateavg -nan
scalar SingleCell.ue[0].cellularNic.rlc.am rlcPduThroughputDl:simu5g_rateavg -nan
scalar SingleCell.ue[0].cellularNic.rlc.am rlcPduDelayUl:mean -nan
scalar SingleCell.ue[0].cellularNic.rlc.am rlcPduDelayDl:mean -nan
scalar SingleCell.ue[0].cellularNic.rlc.am rlcThroughputUl:simu5g_rateavg -nan
scalar SingleCell.ue[0].cellularNic.rlc.am rlcThroughputDl:simu5g_rateavg -nan
scalar SingleCell.ue[0].cellularNic.rlc.am rlcDelayUl:mean -nan
scalar SingleCell.ue[0].cellularNic.rlc.am rlcDelayDl:mean -nan
scalar SingleCell.ue[0].cellularNic.rlc.am rlcPduPacketLossUl:mean -nan
scalar SingleCell.ue[0].cellularNic.rlc.am rlcPduPacketLossDl:mean -nan
scalar SingleCell.ue[0].cellularNic.rlc.am rlcPacketLossUl:mean -nan
scalar SingleCell.ue[0].cellularNic.rlc.am rlcPacketLossDl:mean -nan
scalar SingleCell.ue[0].cellularNic.rlc.am rlcCellPacketLossUl:mean -nan
scalar SingleCell.ue[0].cellularNic.rlc.am rlcCellPacketLossDl:mean -nan
scalar SingleCell.ue[0].cellularNic.mac harqTxAttemptsUl:mean 1
scalar SingleCell.ue[0].cellularNic.mac harqTxAttemptsDl:mean 1
scalar SingleCell.ue[0].cellularNic.mac harqErrorRate_4th_Ul:mean -nan
scalar SingleCell.ue[0].cellularNic.mac harqErrorRate_4th_Dl:mean -nan
scalar SingleCell.ue[0].cellularNic.mac harqErrorRate_3rd_Ul:mean -nan
scalar SingleCell.ue[0].cellularNic.mac harqErrorRate_3rd_Dl:mean -nan
scalar SingleCell.ue[0].cellularNic.mac harqErrorRate_2nd_Ul:mean -nan
scalar SingleCell.ue[0].cellularNic.mac harqErrorRate_2nd_Dl:mean -nan
scalar SingleCell.ue[0].cellularNic.mac harqErrorRate_1st_Ul:mean 0
scalar SingleCell.ue[0].cellularNic.mac harqErrorRate_1st_Dl:mean 0
scalar SingleCell.ue[0].cellularNic.mac harqErrorRateUl:mean 0
scalar SingleCell.ue[0].cellularNic.mac harqErrorRateDl:mean 0
scalar SingleCell.ue[0].cellularNic.mac macCellPacketLossUl:mean -nan
scalar SingleCell.ue[0].cellularNic.mac macCellPacketLossDl:mean -nan
scalar SingleCell.ue[0].cellularNic.mac macPacketLossUl:mean 0
scalar SingleCell.ue[0].cellularNic.mac macPacketLossDl:mean 0
scalar SingleCell.ue[0].cellularNic.mac macThroughputUl:simu5g_rateavg 2654.3121145368136
scalar SingleCell.ue[0].cellularNic.mac macThroughputDl:simu5g_rateavg 1766.9899806057515
scalar SingleCell.ue[0].cellularNic.mac macDelayUl:mean 0.0040000000000000027
scalar SingleCell.ue[0].cellularNic.mac macDelayDl:mean 0.0040000000000000027
scalar SingleCell.ue[0].cellularNic.mac macCellThroughputUl:simu5g_rateavg -nan
scalar SingleCell.ue[0].cellularNic.mac macCellThroughputDl:simu5g_rateavg -nan
scalar SingleCell.ue[0].cellularNic.mac sentPacketToLowerLayer:count 2176
scalar SingleCell.ue[0].cellularNic.mac sentPacketToLowerLayer:sum(packetBytes) 56968
scalar SingleCell.ue[0].cellularNic.mac sentPacketToUpperLayer:count 1415
scalar SingleCell.ue[0].cellularNic.mac sentPacketToUpperLayer:sum(packetBytes) 47195
scalar SingleCell.ue[0].cellularNic.mac receivedPacketFromLowerLayer:count 2936
scalar SingleCell.ue[0].cellularNic.mac receivedPacketFromLowerLayer:sum(packetBytes) 50024
scalar SingleCell.ue[0].cellularNic.mac receivedPacketFromUpperLayer:count 1522
scalar SingleCell.ue[0].cellularNic.mac receivedPacketFromUpperLayer:sum(packetBytes) 106540
scalar SingleCell.ue[0].cellularNic.mac macBufferOverFlowD2D:mean -nan
scalar SingleCell.ue[0].cellularNic.mac macBufferOverFlowUl:mean -nan
scalar SingleCell.ue[0].cellularNic.mac macBufferOverFlowDl:mean -nan
scalar SingleCell.ue[0].cellularNic.phy distance:mean -nan
scalar SingleCell.ue[0].cellularNic.phy averageCqiUl:mean 14
scalar SingleCell.ue[0].cellularNic.phy averageCqiUl:count 761
scalar SingleCell.ue[0].cellularNic.phy averageCqiDl:mean 15
scalar SingleCell.ue[0].cellularNic.phy averageCqiDl:count 654
scalar SingleCell.ue[0].cellularNic.channelModel[0] measuredSinrUl:mean 41.114735843116314
scalar SingleCell.ue[0].cellularNic.channelModel[0] measuredSinrDl:mean 62.593317723456821
scalar SingleCell.ue[0].cellularNic.channelModel[0] rcvdSinrD2D:mean -nan
scalar SingleCell.ue[0].cellularNic.channelModel[0] rcvdSinrUl:mean 39.961142713943318
scalar SingleCell.ue[0].cellularNic.channelModel[0] rcvdSinrDl:mean 65.28554718543279
scalar SingleCell.ue[0].cellularNic packetDropInterfaceDown:count 0
scalar SingleCell.ue[0].cellularNic packetDropInterfaceDown:sum(packetBytes) 0
scalar SingleCell.ue[0].cellularNic packetDropNoCarrier:count 0
scalar SingleCell.ue[0].cellularNic packetDropNoCarrier:sum(packetBytes) 0
scalar SingleCell.ue[0].encap pauseSent:count 0
scalar SingleCell.ue[0].encap pauseSent:sum 0
scalar SingleCell.ue[0].encap decapPk:count 0
scalar SingleCell.ue[0].encap decapPk:sum(packetBytes) 0
scalar SingleCell.ue[0].encap encapPk:count 0
scalar SingleCell.ue[0].encap encapPk:sum(packetBytes) 0
scalar SingleCell.ue[0].ipv4.ip packetDropAddressResolutionFailed:count 0
scalar SingleCell.ue[0].ipv4.ip packetDropAddressResolutionFailed:sum(packetBytes) 0
scalar SingleCell.ue[0].ipv4.ip packetDropHopLimitReached:count 0
scalar SingleCell.ue[0].ipv4.ip packetDropHopLimitReached:sum(packetBytes) 0
scalar SingleCell.ue[0].ipv4.ip packetDropForwardingDisabled:count 0
scalar SingleCell.ue[0].ipv4.ip packetDropForwardingDisabled:sum(packetBytes) 0
scalar SingleCell.ue[0].ipv4.ip packetDropNoInterfaceFound:count 0
scalar SingleCell.ue[0].ipv4.ip packetDropNoInterfaceFound:sum(packetBytes) 0
scalar SingleCell.ue[0].ipv4.ip packetDropNoRouteFound:count 0
scalar SingleCell.ue[0].ipv4.ip packetDropNoRouteFound:sum(packetBytes) 0
scalar SingleCell.ue[0].ipv4.ip packetDropUndefined:count 0
scalar SingleCell.ue[0].ipv4.ip packetDropUndefined:sum(packetBytes) 0
scalar SingleCell.ue[0].ipv4.arp arpResolutionFailed:count 0
scalar SingleCell.ue[0].ipv4.arp arpResolutionCompleted:count 0
scalar SingleCell.ue[0].ipv4.arp arpResolutionInitiated:count 0
scalar SingleCell.ue[0].ipv4.arp arpReplySent:count 0
scalar SingleCell.ue[0].ipv4.arp arpReplySent:sum(packetBytes) 0
scalar SingleCell.ue[0].ipv4.arp arpRequestSent:count 0
scalar SingleCell.ue[0].ipv4.arp arpRequestSent:sum(packetBytes) 0
scalar SingleCell.ue[0].udp packetReceived:count 654
scalar SingleCell.ue[0].udp packetReceived:sum(packetBytes) 31392
scalar SingleCell.ue[0].udp packetSent:count 761
scalar SingleCell.ue[0].udp packetSent:sum(packetBytes) 36528
scalar SingleCell.ue[0].udp passedUpPk:count 654
scalar SingleCell.ue[0].udp droppedPkWrongPort:count 0
scalar SingleCell.ue[0].udp droppedPkBadChecksum:count 0
scalar SingleCell.ue[0].app[0] voipReceivedThroughput:simu5g_rateavg 968.21368800315076
scalar SingleCell.ue[0].app[0] voipPlayoutLoss:mean 0
scalar SingleCell.ue[0].app[0] voipJitter:mean -nan
scalar SingleCell.ue[0].app[0] voipTaildropLoss:mean 0
scalar SingleCell.ue[0].app[0] voipMos:mean 4.4092858240000004
scalar SingleCell.ue[0].app[0] voipFrameDelay:mean 0.0045389765011651477
scalar SingleCell.ue[0].app[0] voipFrameLoss:mean 0
scalar SingleCell.ue[0].app[0] voipPlayoutDelay:mean 0
scalar SingleCell.ue[0].app[1] voipGeneratedThroughput:simu5g_rateavg 1458.9046932141794
scalar SingleCell.ue[1].lo[0].lo rcvdPkFromHl:count 0
scalar SingleCell.ue[1].lo[0].lo rcvdPkFromHl:sum(packetBytes) 0
scalar SingleCell.ue[1].lo[0].lo passedUpPk:count 0
scalar SingleCell.ue[1].lo[0].lo passedUpPk:sum(packetBytes) 0
scalar SingleCell.ue[1].lo[0] packetDropInterfaceDown:count 0
scalar SingleCell.ue[1].lo[0] packetDropInterfaceDown:sum(packetBytes) 0
scalar SingleCell.ue[1].lo[0] packetDropNoCarrier:count 0
scalar SingleCell.ue[1].lo[0] packetDropNoCarrier:sum(packetBytes) 0
scalar SingleCell.ue[1].cellularNic.pdcp sentPacketToLowerLayer:count 766
scalar SingleCell.ue[1].cellularNic.pdcp sentPacketToLowerLayer:sum(packetBytes) 52854
scalar SingleCell.ue[1].cellularNic.pdcp sentPacketToUpperLayer:count 512
scalar SingleCell.ue[1].cellularNic.pdcp sentPacketToUpperLayer:sum(packetBytes) 34816
scalar SingleCell.ue[1].cellularNic.pdcp receivedPacketFromLowerLayer:count 512
scalar SingleCell.ue[1].cellularNic.pdcp receivedPacketFromLowerLayer:sum(packetBytes) 35328
scalar SingleCell.ue[1].cellularNic.pdcp receivedPacketFromUpperLayer:count 766
scalar SingleCell.ue[1].cellularNic.pdcp receivedPacketFromUpperLayer:sum(packetBytes) 52088
scalar SingleCell.ue[1].cellularNic.rlc.tm rlcPacketLossUl:mean -nan
scalar SingleCell.ue[1].cellularNic.rlc.tm rlcPacketLossUl:sum 0
scalar SingleCell.ue[1].cellularNic.rlc.tm rlcPacketLossDl:mean -nan
scalar SingleCell.ue[1].cellularNic.rlc.tm rlcPacketLossDl:sum 0
scalar SingleCell.ue[1].cellularNic.rlc.tm sentPacketToLowerLayer:count 0
scalar SingleCell.ue[1].cellularNic.rlc.tm sentPacketToLowerLayer:sum(packetBytes) 0
scalar SingleCell.ue[1].cellularNic.rlc.tm sentPacketToUpperLayer:count 0
scalar SingleCell.ue[1].cellularNic.rlc.tm sentPacketToUpperLayer:sum(packetBytes) 0
scalar SingleCell.ue[1].cellularNic.rlc.tm receivedPacketFromLowerLayer:count 0
scalar SingleCell.ue[1].cellularNic.rlc.tm receivedPacketFromLowerLayer:sum(packetBytes) 0
scalar SingleCell.ue[1].cellularNic.rlc.tm receivedPacketFromUpperLayer:count 0
scalar SingleCell.ue[1].cellularNic.rlc.tm receivedPacketFromUpperLayer:sum(packetBytes) 0
scalar SingleCell.ue[1].cellularNic.rlc.um rlcCellThroughputUl:simu5g_rateavg -nan
scalar SingleCell.ue[1].cellularNic.rlc.um rlcCellThroughputDl:simu5g_rateavg -nan
scalar SingleCell.ue[1].cellularNic.rlc.um rlcPduThroughputUl:simu5g_rateavg 0
scalar SingleCell.ue[1].cellularNic.rlc.um rlcPduThroughputDl:simu5g_rateavg 0
scalar SingleCell.ue[1].cellularNic.rlc.um rlcPduDelayUl:mean 0.0040000000000000027
scalar SingleCell.ue[1].cellularNic.rlc.um rlcPduDelayDl:mean 0.0040000000000000027
scalar SingleCell.ue[1].cellularNic.rlc.um rlcThroughputUl:simu5g_rateavg 3133.6570355702029
scalar SingleCell.ue[1].cellularNic.rlc.um rlcThroughputDl:simu5g_rateavg 2414.2917602704069
scalar SingleCell.ue[1].cellularNic.rlc.um rlcDelayUl:mean 0.0086293501780301245
scalar SingleCell.ue[1].cellularNic.rlc.um rlcDelayDl:mean 0.0043550545734980795
scalar SingleCell.ue[1].cellularNic.rlc.um sentPacketToLowerLayer:count 766
scalar SingleCell.ue[1].cellularNic.rlc.um sentPacketToLowerLayer:sum(packetBytes) 54386
scalar SingleCell.ue[1].cellularNic.rlc.um sentPacketToUpperLayer:count 512
scalar SingleCell.ue[1].cellularNic.rlc.um sentPacketToUpperLayer:sum(packetBytes) 35328
scalar SingleCell.ue[1].cellularNic.rlc.um receivedPacketFromLowerLayer:count 512
scalar SingleCell.ue[1].cellularNic.rlc.um receivedPacketFromLowerLayer:sum(packetBytes) 36352
scalar SingleCell.ue[1].cellularNic.rlc.um receivedPacketFromUpperLayer:count 766
scalar SingleCell.ue[1].cellularNic.rlc.um receivedPacketFromUpperLayer:sum(packetBytes) 52854
scalar SingleCell.ue[1].cellularNic.rlc.am rlcPacketLossTotal:mean -nan
scalar SingleCell.ue[1].cellularNic.rlc.am rlcCellThroughputUl:simu5g_rateavg -nan
scalar SingleCell.ue[1].cellularNic.rlc.am rlcCellThroughputDl:simu5g_rateavg -nan
scalar SingleCell.ue[1].cellularNic.rlc.am rlcPduThroughputUl:simu5g_rateavg -nan
scalar SingleCell.ue[1].cellularNic.rlc.am rlcPduThroughputDl:simu5g_rateavg -nan
scalar SingleCell.ue[1].cellularNic.rlc.am rlcPduDelayUl:mean -nan
scalar SingleCell.ue[1].cellularNic.rlc.am rlcPduDelayDl:mean -nan
scalar SingleCell.ue[1].cellularNic.rlc.am rlcThroughputUl:simu5g_rateavg -nan
scalar SingleCell.ue[1].cellularNic.rlc.am rlcThroughputDl:simu5g_rateavg -nan
scalar SingleCell.ue[1].cellularNic.rlc.am rlcDelayUl:mean -nan
scalar SingleCell.ue[1].cellularNic.rlc.am rlcDelayDl:mean -nan
scalar SingleCell.ue[1].cellularNic.rlc.am rlcPduPacketLossUl:mean -nan
scalar SingleCell.ue[1].cellularNic.rlc.am rlcPduPacketLossDl:mean -nan
scalar SingleCell.ue[1].cellularNic.rlc.am rlcPacketLossUl:mean -nan
scalar SingleCell.ue[1].cellularNic.rlc.am rlcPacketLossDl:mean -nan
scalar SingleCell.ue[1].cellularNic.rlc.am rlcCellPacketLossUl:mean -nan
scalar SingleCell.ue[1].cellularNic.rlc.am rlcCellPacketLossDl:mean -nan
scalar SingleCell.ue[1].cellularNic.mac harqTxAttemptsUl:mean 1
scalar SingleCell.ue[1].cellularNic.mac harqTxAttemptsDl:mean 1
scalar SingleCell.ue[1].cellularNic.mac harqErrorRate_4th_Ul:mean -nan
scalar SingleCell.ue[1].cellularNic.mac harqErrorRate_4th_Dl:mean -nan
scalar SingleCell.ue[1].cellularNic.mac harqErrorRate_3rd_Ul:mean -nan
scalar SingleCell.ue[1].cellularNic.mac harqErrorRate_3rd_Dl:mean -nan
scalar SingleCell.ue[1].cellularNic.mac harqErrorRate_2nd_Ul:mean -nan
scalar SingleCell.ue[1].cellularNic.mac harqErrorRate_2nd_Dl:mean -nan
scalar SingleCell.ue[1].cellularNic.mac harqErrorRate_1st_Ul:mean 0
scalar SingleCell.ue[1].cellularNic.mac harqErrorRate_1st_Dl:mean 0
scalar SingleCell.ue[1].cellularNic.mac harqErrorRateUl:mean 0
scalar SingleCell.ue[1].cellularNic.mac harqErrorRateDl:mean 0
scalar SingleCell.ue[1].cellularNic.mac macCellPacketLossUl:mean -nan
scalar SingleCell.ue[1].cellularNic.mac macCellPacketLossDl:mean -nan
scalar SingleCell.ue[1].cellularNic.mac macPacketLossUl:mean 0
scalar SingleCell.ue[1].cellularNic.mac macPacketLossDl:mean 0
scalar SingleCell.ue[1].cellularNic.mac macThroughputUl:simu5g_rateavg 3315.3183129945637
scalar SingleCell.ue[1].cellularNic.mac macThroughputDl:simu5g_rateavg 2554.2507028947789
scalar SingleCell.ue[1].cellularNic.mac macDelayUl:mean 0.0040000000000000027
scalar SingleCell.ue[1].cellularNic.mac macDelayDl:mean 0.0040000000000000027
scalar SingleCell.ue[1].cellularNic.mac macCellThroughputUl:simu5g_rateavg -nan
scalar SingleCell.ue[1].cellularNic.mac macCellThroughputDl:simu5g_rateavg -nan
scalar SingleCell.ue[1].cellularNic.mac sentPacketToLowerLayer:count 2044
scalar SingleCell.ue[1].cellularNic.mac sentPacketToLowerLayer:sum(packetBytes) 57196
scalar SingleCell.ue[1].cellularNic.mac sentPacketToUpperLayer:count 1278
scalar SingleCell.ue[1].cellularNic.mac sentPacketToUpperLayer:sum(packetBytes) 37118
scalar SingleCell.ue[1].cellularNic.mac receivedPacketFromLowerLayer:count 2810
scalar SingleCell.ue[1].cellularNic.mac receivedPacketFromLowerLayer:sum(packetBytes) 39674
scalar SingleCell.ue[1].cellularNic.mac receivedPacketFromUpperLayer:count 1532
scalar SingleCell.ue[1].cellularNic.mac receivedPacketFromUpperLayer:sum(packetBytes) 107240
scalar SingleCell.ue[1].cellularNic.mac macBufferOverFlowD2D:mean -nan
scalar SingleCell.ue[1].cellularNic.mac macBufferOverFlowUl:mean -nan
scalar SingleCell.ue[1].cellularNic.mac macBufferOverFlowDl:mean -nan
scalar SingleCell.ue[1].cellularNic.phy distance:mean -nan
scalar SingleCell.ue[1].cellularNic.phy averageCqiUl:mean 15
scalar SingleCell.ue[1].cellularNic.phy averageCqiUl:count 766
scalar SingleCell.ue[1].cellularNic.phy averageCqiDl:mean 15
scalar SingleCell.ue[1].cellularNic.phy averageCqiDl:count 512
scalar SingleCell.ue[1].cellularNic.channelModel[0] measuredSinrUl:mean 46.792465742296656
scalar SingleCell.ue[1].cellularNic.channelModel[0] measuredSinrDl:mean 58.596898842571882
scalar SingleCell.ue[1].cellularNic.channelModel[0] rcvdSinrD2D:mean -nan
scalar SingleCell.ue[1].cellularNic.channelModel[0] rcvdSinrUl:mean 44.803744619913338
scalar SingleCell.ue[1].cellularNic.channelModel[0] rcvdSinrDl:mean 56.47842958261991
scalar SingleCell.ue[1].cellularNic packetDropInterfaceDown:count 0
scalar SingleCell.ue[1].cellularNic packetDropInterfaceDown:sum(packetBytes) 0
scalar SingleCell.ue[1].cellularNic packetDropNoCarrier:count 0
scalar SingleCell.ue[1].cellularNic packetDropNoCarrier:sum(packetBytes) 0
scalar SingleCell.ue[1].encap pauseSent:count 0
scalar SingleCell.ue[1].encap pauseSent:sum 0
scalar SingleCell.ue[1].encap decapPk:count 0
scalar SingleCell.ue[1].encap decapPk:sum(packetBytes) 0
scalar SingleCell.ue[1].encap encapPk:count 0
scalar SingleCell.ue[1].encap encapPk:sum(packetBytes) 0
scalar SingleCell.ue[1].ipv4.ip packetDropAddressResolutionFailed:count 0
scalar SingleCell.ue[1].ipv4.ip packetDropAddressResolutionFailed:sum(packetBytes) 0
scalar SingleCell.ue[1].ipv4.ip packetDropHopLimitReached:count 0
scalar SingleCell.ue[1].ipv4.ip packetDropHopLimitReached:sum(packetBytes) 0
scalar SingleCell.ue[1].ipv4.ip packetDropForwardingDisabled:count 0
scalar SingleCell.ue[1].ipv4.ip packetDropForwardingDisabled:sum(packetBytes) 0
scalar SingleCell.ue[1].ipv4.ip packetDropNoInterfaceFound:count 0
scalar SingleCell.ue[1].ipv4.ip packetDropNoInterfaceFound:sum(packetBytes) 0
scalar SingleCell.ue[1].ipv4.ip packetDropNoRouteFound:count 0
scalar SingleCell.ue[1].ipv4.ip packetDropNoRouteFound:sum(packetBytes) 0
scalar SingleCell.ue[1].ipv4.ip packetDropUndefined:count 0
scalar SingleCell.ue[1].ipv4.ip packetDropUndefined:sum(packetBytes) 0
scalar SingleCell.ue[1].ipv4.arp arpResolutionFailed:count 0
scalar SingleCell.ue[1].ipv4.arp arpResolutionCompleted:count 0
scalar SingleCell.ue[1].ipv4.arp arpResolutionInitiated:count 0
scalar SingleCell.ue[1].ipv4.arp arpReplySent:count 0
scalar SingleCell.ue[1].ipv4.arp arpReplySent:sum(packetBytes) 0
scalar SingleCell.ue[1].ipv4.arp arpRequestSent:count 0
scalar SingleCell.ue[1].ipv4.arp arpRequestSent:sum(packetBytes) 0
scalar SingleCell.ue[1].udp packetReceived:count 512
scalar SingleCell.ue[1].udp packetReceived:sum(packetBytes) 24576
scalar SingleCell.ue[1].udp packetSent:count 766
scalar SingleCell.ue[1].udp packetSent:sum(packetBytes) 36768
scalar SingleCell.ue[1].udp passedUpPk:count 512
scalar SingleCell.ue[1].udp droppedPkWrongPort:count 0
scalar SingleCell.ue[1].udp droppedPkBadChecksum:count 0
scalar SingleCell.ue[1].app[0] voipReceivedThroughput:simu5g_rateavg 1399.5894262437148
scalar SingleCell.ue[1].app[0] voipPlayoutLoss:mean 0
scalar SingleCell.ue[1].app[0] voipJitter:mean -nan
scalar SingleCell.ue[1].app[0] voipTaildropLoss:mean 0
scalar SingleCell.ue[1].app[0] voipMos:mean 4.4092858240000004
scalar SingleCell.ue[1].app[0] voipFrameDelay:mean 0.0043554133734980353
scalar SingleCell.ue[1].app[0] voipFrameLoss:mean 0
scalar SingleCell.ue[1].app[0] voipPlayoutDelay:mean 0
scalar SingleCell.ue[1].app[1] voipGeneratedThroughput:simu5g_rateavg 1822.9262862820024
scalar SingleCell.ue[2].lo[0].lo rcvdPkFromHl:count 0
scalar SingleCell.ue[2].lo[0].lo rcvdPkFromHl:sum(packetBytes) 0
scalar SingleCell.ue[2].lo[0].lo passedUpPk:count 0
scalar SingleCell.ue[2].lo[0].lo passedUpPk:sum(packetBytes) 0
scalar SingleCell.ue[2].lo[0] packetDropInterfaceDown:count 0
scalar SingleCell.ue[2].lo[0] packetDropInterfaceDown:sum(packetBytes) 0
scalar SingleCell.ue[2].lo[0] packetDropNoCarrier:count 0
scalar SingleCell.ue[2].lo[0] packetDropNoCarrier:sum(packetBytes) 0
scalar SingleCell.ue[2].cellularNic.pdcp sentPacketToLowerLayer:count 681
scalar SingleCell.ue[2].cellularNic.pdcp sentPacketToLowerLayer:sum(packetBytes) 46989
scalar SingleCell.ue[2].cellularNic.pdcp sentPacketToUpperLayer:count 791
scalar SingleCell.ue[2].cellularNic.pdcp sentPacketToUpperLayer:sum(packetBytes) 53788
scalar SingleCell.ue[2].cellularNic.pdcp receivedPacketFromLowerLayer:count 791
scalar SingleCell.ue[2].cellularNic.pdcp receivedPacketFromLowerLayer:sum(packetBytes) 54579
scalar SingleCell.ue[2].cellularNic.pdcp receivedPacketFromUpperLayer:count 681
scalar SingleCell.ue[2].cellularNic.pdcp receivedPacketFromUpperLayer:sum(packetBytes) 46308
scalar SingleCell.ue[2].cellularNic.rlc.tm rlcPacketLossUl:mean -nan
scalar SingleCell.ue[2].cellularNic.rlc.tm rlcPacketLossUl:sum 0
scalar SingleCell.ue[2].cellularNic.rlc.tm rlcPacketLossDl:mean -nan
scalar SingleCell.ue[2].cellularNic.rlc.tm rlcPacketLossDl:sum 0
scalar SingleCell.ue[2].cellularNic.rlc.tm sentPacketToLowerLayer:count 0
scalar SingleCell.ue[2].cellularNic.rlc.tm sentPacketToLowerLayer:sum(packetBytes) 0
scalar SingleCell.ue[2].cellularNic.rlc.tm sentPacketToUpperLayer:count 0
scalar SingleCell.ue[2].cellularNic.rlc.tm sentPacketToUpperLayer:sum(packetBytes) 0
scalar SingleCell.ue[2].cellularNic.rlc.tm receivedPacketFromLowerLayer:count 0
scalar SingleCell.ue[2].cellularNic.rlc.tm receivedPacketFromLowerLayer:sum(packetBytes) 0
scalar SingleCell.ue[2].cellularNic.rlc.tm receivedPacketFromUpperLayer:count 0
scalar SingleCell.ue[2].cellularNic.rlc.tm receivedPacketFromUpperLayer:sum(packetBytes) 0
scalar SingleCell.ue[2].cellularNic.rlc.um rlcCellThroughputUl:simu5g_rateavg -nan
scalar SingleCell.ue[2].cellularNic.rlc.um rlcCellThroughputDl:simu5g_rateavg -nan
scalar SingleCell.ue[2].cellularNic.rlc.um rlcPduThroughputUl:simu5g_rateavg 0
scalar SingleCell.ue[2].cellularNic.rlc.um rlcPduThroughputDl:simu5g_rateavg 0
scalar SingleCell.ue[2].cellularNic.rlc.um rlcPduDelayUl:mean 0.0040000000000000027
scalar SingleCell.ue[2].cellularNic.rlc.um rlcPduDelayDl:mean 0.0040000000000000027
scalar SingleCell.ue[2].cellularNic.rlc.um rlcThroughputUl:simu5g_rateavg 2479.59869619645
scalar SingleCell.ue[2].cellularNic.rlc.um rlcThroughputDl:simu5g_rateavg 2824.5912670995508
scalar SingleCell.ue[2].cellularNic.rlc.um rlcDelayUl:mean 0.0084904741181761143
scalar SingleCell.ue[2].cellularNic.rlc.um rlcDelayDl:mean 0.0043900990677117118
scalar SingleCell.ue[2].cellularNic.rlc.um sentPacketToLowerLayer:count 681
scalar SingleCell.ue[2].cellularNic.rlc.um sentPacketToLowerLayer:sum(packetBytes) 48351
scalar SingleCell.ue[2].cellularNic.rlc.um sentPacketToUpperLayer:count 791
scalar SingleCell.ue[2].cellularNic.rlc.um sentPacketToUpperLayer:sum(packetBytes) 54579
scalar SingleCell.ue[2].cellularNic.rlc.um receivedPacketFromLowerLayer:count 791
scalar SingleCell.ue[2].cellularNic.rlc.um receivedPacketFromLowerLayer:sum(packetBytes) 56161
scalar SingleCell.ue[2].cellularNic.rlc.um receivedPacketFromUpperLayer:count 681
scalar SingleCell.ue[2].cellularNic.rlc.um receivedPacketFromUpperLayer:sum(packetBytes) 46989
scalar SingleCell.ue[2].cellularNic.rlc.am rlcPacketLossTotal:mean -nan
scalar SingleCell.ue[2].cellularNic.rlc.am rlcCellThroughputUl:simu5g_rateavg -nan
scalar SingleCell.ue[2].cellularNic.rlc.am rlcCellThroughputDl:simu5g_rateavg -nan
scalar SingleCell.ue[2].cellularNic.rlc.am rlcPduThroughputUl:simu5g_rateavg -nan
scalar SingleCell.ue[2].cellularNic.rlc.am rlcPduThroughputDl:simu5g_rateavg -nan
scalar SingleCell.ue[2].cellularNic.rlc.am rlcPduDelayUl:mean -nan
scalar SingleCell.ue[2].cellularNic.rlc.am rlcPduDelayDl:mean -nan
scalar SingleCell.ue[2].cellularNic.rlc.am rlcThroughputUl:simu5g_rateavg -nan
scalar SingleCell.ue[2].cellularNic.rlc.am rlcThroughputDl:simu5g_rateavg -nan
scalar SingleCell.ue[2].cellularNic.rlc.am rlcDelayUl:mean -nan
scalar SingleCell.ue[2].cellularNic.rlc.am rlcDelayDl:mean -nan
scalar SingleCell.ue[2].cellularNic.rlc.am rlcPduPacketLossUl:mean -nan
scalar SingleCell.ue[2].cellularNic.rlc.am rlcPduPacketLossDl:mean -nan
scalar SingleCell.ue[2].cellularNic.rlc.am rlcPacketLossUl:mean -nan
scalar SingleCell.ue[2].cellularNic.rlc.am rlcPacketLossDl:mean -nan
scalar SingleCell.ue[2].cellularNic.rlc.am rlcCellPacketLossUl:mean -nan
scalar SingleCell.ue[2].cellularNic.rlc.am rlcCellPacketLossDl:mean -nan
scalar SingleCell.ue[2].cellularNic.mac harqTxAttemptsUl:mean 1
scalar SingleCell.ue[2].cellularNic.mac harqTxAttemptsDl:mean 1
scalar SingleCell.ue[2].cellularNic.mac harqErrorRate_4th_Ul:mean -nan
scalar SingleCell.ue[2].cellularNic.mac harqErrorRate_4th_Dl:mean -nan
scalar SingleCell.ue[2].cellularNic.mac harqErrorRate_3rd_Ul:mean -nan
scalar SingleCell.ue[2].cellularNic.mac harqErrorRate_3rd_Dl:mean -nan
scalar SingleCell.ue[2].cellularNic.mac harqErrorRate_2nd_Ul:mean -nan
scalar SingleCell.ue[2].cellularNic.mac harqErrorRate_2nd_Dl:mean -nan
scalar SingleCell.ue[2].cellularNic.mac harqErrorRate_1st_Ul:mean 0
scalar SingleCell.ue[2].cellularNic.mac harqErrorRate_1st_Dl:mean 0
scalar SingleCell.ue[2].cellularNic.mac harqErrorRateUl:mean 0
scalar SingleCell.ue[2].cellularNic.mac harqErrorRateDl:mean 0
scalar SingleCell.ue[2].cellularNic.mac macCellPacketLossUl:mean -nan
scalar SingleCell.ue[2].cellularNic.mac macCellPacketLossDl:mean -nan
scalar SingleCell.ue[2].cellularNic.mac macPacketLossUl:mean 0
scalar SingleCell.ue[2].cellularNic.mac macPacketLossDl:mean 0
scalar SingleCell.ue[2].cellularNic.mac macThroughputUl:simu5g_rateavg 2623.3435481498686
scalar SingleCell.ue[2].cellularNic.mac macThroughputDl:simu5g_rateavg 2988.3356883806887
scalar SingleCell.ue[2].cellularNic.mac macDelayUl:mean 0.0040000000000000027
scalar SingleCell.ue[2].cellularNic.mac macDelayDl:mean 0.0040000000000000027
scalar SingleCell.ue[2].cellularNic.mac macCellThroughputUl:simu5g_rateavg -nan
scalar SingleCell.ue[2].cellularNic.mac macCellThroughputDl:simu5g_rateavg -nan
scalar SingleCell.ue[2].cellularNic.mac sentPacketToLowerLayer:count 2153
scalar SingleCell.ue[2].cellularNic.mac sentPacketToLowerLayer:sum(packetBytes) 51185
scalar SingleCell.ue[2].cellularNic.mac sentPacketToUpperLayer:count 1472
scalar SingleCell.ue[2].cellularNic.mac sentPacketToUpperLayer:sum(packetBytes) 56842
scalar SingleCell.ue[2].cellularNic.mac receivedPacketFromLowerLayer:count 2834
scalar SingleCell.ue[2].cellularNic.mac receivedPacketFromLowerLayer:sum(packetBytes) 59786
scalar SingleCell.ue[2].cellularNic.mac receivedPacketFromUpperLayer:count 1362
scalar SingleCell.ue[2].cellularNic.mac receivedPacketFromUpperLayer:sum(packetBytes) 95340
scalar SingleCell.ue[2].cellularNic.mac macBufferOverFlowD2D:mean -nan
scalar SingleCell.ue[2].cellularNic.mac macBufferOverFlowUl:mean -nan
scalar SingleCell.ue[2].cellularNic.mac macBufferOverFlowDl:mean -nan
scalar SingleCell.ue[2].cellularNic.phy distance:mean -nan
scalar SingleCell.ue[2].cellularNic.phy averageCqiUl:mean 15
scalar SingleCell.ue[2].cellularNic.phy averageCqiUl:count 681
scalar SingleCell.ue[2].cellularNic.phy averageCqiDl:mean 15
scalar SingleCell.ue[2].cellularNic.phy averageCqiDl:count 791
scalar SingleCell.ue[2].cellularNic.channelModel[0] measuredSinrUl:mean 38.581945184720041
scalar SingleCell.ue[2].cellularNic.channelModel[0] measuredSinrDl:mean 61.697291618627581
scalar SingleCell.ue[2].cellularNic.channelModel[0] rcvdSinrD2D:mean -nan
scalar SingleCell.ue[2].cellularNic.channelModel[0] rcvdSinrUl:mean 33.767975514477179
scalar SingleCell.ue[2].cellularNic.channelModel[0] rcvdSinrDl:mean 60.076043169859233
scalar SingleCell.ue[2].cellularNic packetDropInterfaceDown:count 0
scalar SingleCell.ue[2].cellularNic packetDropInterfaceDown:sum(packetBytes) 0
scalar SingleCell.ue[2].cellularNic packetDropNoCarrier:count 0
scalar SingleCell.ue[2].cellularNic packetDropNoCarrier:sum(packetBytes) 0
scalar SingleCell.ue[2].encap pauseSent:count 0
scalar SingleCell.ue[2].encap pauseSent:sum 0
scalar SingleCell.ue[2].encap decapPk:count 0
scalar SingleCell.ue[2].encap decapPk:sum(packetBytes) 0
scalar SingleCell.ue[2].encap encapPk:count 0
scalar SingleCell.ue[2].encap encapPk:sum(packetBytes) 0
scalar SingleCell.ue[2].ipv4.ip packetDropAddressResolutionFailed:count 0
scalar SingleCell.ue[2].ipv4.ip packetDropAddressResolutionFailed:sum(packetBytes) 0
scalar SingleCell.ue[2].ipv4.ip packetDropHopLimitReached:count 0
scalar SingleCell.ue[2].ipv4.ip packetDropHopLimitReached:sum(packetBytes) 0
scalar SingleCell.ue[2].ipv4.ip packetDropForwardingDisabled:count 0
scalar SingleCell.ue[2].ipv4.ip packetDropForwardingDisabled:sum(packetBytes) 0
scalar SingleCell.ue[2].ipv4.ip packetDropNoInterfaceFound:count 0
scalar SingleCell.ue[2].ipv4.ip packetDropNoInterfaceFound:sum(packetBytes) 0
scalar SingleCell.ue[2].ipv4.ip packetDropNoRouteFound:count 0
scalar SingleCell.ue[2].ipv4.ip packetDropNoRouteFound:sum(packetBytes) 0
scalar SingleCell.ue[2].ipv4.ip packetDropUndefined:count 0
scalar SingleCell.ue[2].ipv4.ip packetDropUndefined:sum(packetBytes) 0
scalar SingleCell.ue[2].ipv4.arp arpResolutionFailed:count 0
scalar SingleCell.ue[2].ipv4.arp arpResolutionCompleted:count 0
scalar SingleCell.ue[2].ipv4.arp arpResolutionInitiated:count 0
scalar SingleCell.ue[2].ipv4.arp arpReplySent:count 0
scalar SingleCell.ue[2].ipv4.arp arpReplySent:sum(packetBytes) 0
scalar SingleCell.ue[2].ipv4.arp arpRequestSent:count 0
scalar SingleCell.ue[2].ipv4.arp arpRequestSent:sum(packetBytes) 0
scalar SingleCell.ue[2].udp packetReceived:count 791
scalar SingleCell.ue[2].udp packetReceived:sum(packetBytes) 37968
scalar SingleCell.ue[2].udp packetSent:count 681
scalar SingleCell.ue[2].udp packetSent:sum(packetBytes) 32688
scalar SingleCell.ue[2].udp passedUpPk:count 791
scalar SingleCell.ue[2].udp droppedPkWrongPort:count 0
scalar SingleCell.ue[2].udp droppedPkBadChecksum:count 0
scalar SingleCell.ue[2].app[0] voipReceivedThroughput:simu5g_rateavg 1637.4442128113344
scalar SingleCell.ue[2].app[0] voipPlayoutLoss:mean 0
scalar SingleCell.ue[2].app[0] voipJitter:mean -nan
scalar SingleCell.ue[2].app[0] voipTaildropLoss:mean 0
scalar SingleCell.ue[2].app[0] voipMos:mean 4.4092858240000004
[...]
scalar SingleCell.ue[24].cellularNic.phy servingCell:vector:min inf
scalar SingleCell.ue[24].cellularNic.phy servingCell:vector:max -inf
scalar SingleCell.ue[24].cellularNic.phy servingCell:vector:starttime nan
scalar SingleCell.ue[24].cellularNic.phy servingCell:vector:endtime nan
scalar SingleCell.ue[24].cellularNic.phy averageCqiDl:vector:count 0
scalar SingleCell.ue[24].cellularNic.phy averageCqiDl:vector:sum 0
scalar SingleCell.ue[24].cellularNic.phy averageCqiDl:vector:sumweights 0
scalar SingleCell.ue[24].cellularNic.phy averageCqiDl:vector:mean -nan
scalar SingleCell.ue[24].cellularNic.phy averageCqiDl:vector:stddev nan
scalar SingleCell.ue[24].cellularNic.phy averageCqiDl:vector:min inf
scalar SingleCell.ue[24].cellularNic.phy averageCqiDl:vector:max -inf
scalar SingleCell.ue[24].cellularNic.phy averageCqiDl:vector:starttime nan
scalar SingleCell.ue[24].cellularNic.phy averageCqiDl:vector:endtime nan
scalar SingleCell.ue[24].cellularNic.phy averageCqiUl:vector:count 0
scalar SingleCell.ue[24].cellularNic.phy averageCqiUl:vector:sum 0
scalar SingleCell.ue[24].cellularNic.phy averageCqiUl:vector:sumweights 0
scalar SingleCell.ue[24].cellularNic.phy averageCqiUl:vector:mean -nan
scalar SingleCell.ue[24].cellularNic.phy averageCqiUl:vector:stddev nan
scalar SingleCell.ue[24].cellularNic.phy averageCqiUl:vector:min inf
scalar SingleCell.ue[24].cellularNic.phy averageCqiUl:vector:max -inf
scalar SingleCell.ue[24].cellularNic.phy averageCqiUl:vector:starttime nan
scalar SingleCell.ue[24].cellularNic.phy averageCqiUl:vector:endtime nan
scalar SingleCell.ue[24].cellularNic.channelModel[0] rcvdSinrDl:vector:count 0
scalar SingleCell.ue[24].cellularNic.channelModel[0] rcvdSinrDl:vector:sum 0
scalar SingleCell.ue[24].cellularNic.channelModel[0] rcvdSinrDl:vector:sumweights 0
scalar SingleCell.ue[24].cellularNic.channelModel[0] rcvdSinrDl:vector:mean -nan
scalar SingleCell.ue[24].cellularNic.channelModel[0] rcvdSinrDl:vector:stddev nan
scalar SingleCell.ue[24].cellularNic.channelModel[0] rcvdSinrDl:vector:min inf
scalar SingleCell.ue[24].cellularNic.channelModel[0] rcvdSinrDl:vector:max -inf
scalar SingleCell.ue[24].cellularNic.channelModel[0] rcvdSinrDl:vector:starttime nan
scalar SingleCell.ue[24].cellularNic.channelModel[0] rcvdSinrDl:vector:endtime nan
scalar SingleCell.ue[24].cellularNic.channelModel[0] rcvdSinrUl:vector:count 0
scalar SingleCell.ue[24].cellularNic.channelModel[0] rcvdSinrUl:vector:sum 0
scalar SingleCell.ue[24].cellularNic.channelModel[0] rcvdSinrUl:vector:sumweights 0
scalar SingleCell.ue[24].cellularNic.channelModel[0] rcvdSinrUl:vector:mean -nan
scalar SingleCell.ue[24].cellularNic.channelModel[0] rcvdSinrUl:vector:stddev nan
scalar SingleCell.ue[24].cellularNic.channelModel[0] rcvdSinrUl:vector:min inf
scalar SingleCell.ue[24].cellularNic.channelModel[0] rcvdSinrUl:vector:max -inf
scalar SingleCell.ue[24].cellularNic.channelModel[0] rcvdSinrUl:vector:starttime nan
scalar SingleCell.ue[24].cellularNic.channelModel[0] rcvdSinrUl:vector:endtime nan
scalar SingleCell.ue[24].cellularNic.channelModel[0] rcvdSinrD2D:vector:count 0
scalar SingleCell.ue[24].cellularNic.channelModel[0] rcvdSinrD2D:vector:sum 0
scalar SingleCell.ue[24].cellularNic.channelModel[0] rcvdSinrD2D:vector:sumweights 0
scalar SingleCell.ue[24].cellularNic.channelModel[0] rcvdSinrD2D:vector:mean -nan
scalar SingleCell.ue[24].cellularNic.channelModel[0] rcvdSinrD2D:vector:stddev nan
scalar SingleCell.ue[24].cellularNic.channelModel[0] rcvdSinrD2D:vector:min inf
scalar SingleCell.ue[24].cellularNic.channelModel[0] rcvdSinrD2D:vector:max -inf
scalar SingleCell.ue[24].cellularNic.channelModel[0] rcvdSinrD2D:vector:starttime nan
scalar SingleCell.ue[24].cellularNic.channelModel[0] rcvdSinrD2D:vector:endtime nan
scalar SingleCell.ue[24].cellularNic.channelModel[0] measuredSinrDl:vector:count 0
scalar SingleCell.ue[24].cellularNic.channelModel[0] measuredSinrDl:vector:sum 0
scalar SingleCell.ue[24].cellularNic.channelModel[0] measuredSinrDl:vector:sumweights 0
scalar SingleCell.ue[24].cellularNic.channelModel[0] measuredSinrDl:vector:mean -nan
scalar SingleCell.ue[24].cellularNic.channelModel[0] measuredSinrDl:vector:stddev nan
scalar SingleCell.ue[24].cellularNic.channelModel[0] measuredSinrDl:vector:min inf
scalar SingleCell.ue[24].cellularNic.channelModel[0] measuredSinrDl:vector:max -inf
scalar SingleCell.ue[24].cellularNic.channelModel[0] measuredSinrDl:vector:starttime nan
scalar SingleCell.ue[24].cellularNic.channelModel[0] measuredSinrDl:vector:endtime nan
scalar SingleCell.ue[24].cellularNic.channelModel[0] measuredSinrUl:vector:count 0
scalar SingleCell.ue[24].cellularNic.channelModel[0] measuredSinrUl:vector:sum 0
scalar SingleCell.ue[24].cellularNic.channelModel[0] measuredSinrUl:vector:sumweights 0
scalar SingleCell.ue[24].cellularNic.channelModel[0] measuredSinrUl:vector:mean -nan
scalar SingleCell.ue[24].cellularNic.channelModel[0] measuredSinrUl:vector:stddev nan
scalar SingleCell.ue[24].cellularNic.channelModel[0] measuredSinrUl:vector:min inf
scalar SingleCell.ue[24].cellularNic.channelModel[0] measuredSinrUl:vector:max -inf
scalar SingleCell.ue[24].cellularNic.channelModel[0] measuredSinrUl:vector:starttime nan
scalar SingleCell.ue[24].cellularNic.channelModel[0] measuredSinrUl:vector:endtime nan
scalar SingleCell.ue[24].cellularNic packetDropInterfaceDown:vector(packetBytes):count 0
scalar SingleCell.ue[24].cellularNic packetDropInterfaceDown:vector(packetBytes):sum 0
scalar SingleCell.ue[24].cellularNic packetDropInterfaceDown:vector(packetBytes):sumweights 0
scalar SingleCell.ue[24].cellularNic packetDropInterfaceDown:vector(packetBytes):mean -nan
scalar SingleCell.ue[24].cellularNic packetDropInterfaceDown:vector(packetBytes):stddev nan
scalar SingleCell.ue[24].cellularNic packetDropInterfaceDown:vector(packetBytes):min inf
scalar SingleCell.ue[24].cellularNic packetDropInterfaceDown:vector(packetBytes):max -inf
scalar SingleCell.ue[24].cellularNic packetDropInterfaceDown:vector(packetBytes):starttime nan
scalar SingleCell.ue[24].cellularNic packetDropInterfaceDown:vector(packetBytes):endtime nan
scalar SingleCell.ue[24].cellularNic packetDropNoCarrier:vector(packetBytes):count 0
scalar SingleCell.ue[24].cellularNic packetDropNoCarrier:vector(packetBytes):sum 0
scalar SingleCell.ue[24].cellularNic packetDropNoCarrier:vector(packetBytes):sumweights 0
scalar SingleCell.ue[24].cellularNic packetDropNoCarrier:vector(packetBytes):mean -nan
scalar SingleCell.ue[24].cellularNic packetDropNoCarrier:vector(packetBytes):stddev nan
scalar SingleCell.ue[24].cellularNic packetDropNoCarrier:vector(packetBytes):min inf
scalar SingleCell.ue[24].cellularNic packetDropNoCarrier:vector(packetBytes):max -inf
scalar SingleCell.ue[24].cellularNic packetDropNoCarrier:vector(packetBytes):starttime nan
scalar SingleCell.ue[24].cellularNic packetDropNoCarrier:vector(packetBytes):endtime nan
scalar SingleCell.ue[24].encap encapPk:vector(packetBytes):count 0
scalar SingleCell.ue[24].encap encapPk:vector(packetBytes):sum 0
scalar SingleCell.ue[24].encap encapPk:vector(packetBytes):sumweights 0
scalar SingleCell.ue[24].encap encapPk:vector(packetBytes):mean -nan
scalar SingleCell.ue[24].encap encapPk:vector(packetBytes):stddev nan
scalar SingleCell.ue[24].encap encapPk:vector(packetBytes):min inf
scalar SingleCell.ue[24].encap encapPk:vector(packetBytes):max -inf
scalar SingleCell.ue[24].encap encapPk:vector(packetBytes):starttime nan
scalar SingleCell.ue[24].encap encapPk:vector(packetBytes):endtime nan
scalar SingleCell.ue[24].encap decapPk:vector(packetBytes):count 0
scalar SingleCell.ue[24].encap decapPk:vector(packetBytes):sum 0
scalar SingleCell.ue[24].encap decapPk:vector(packetBytes):sumweights 0
scalar SingleCell.ue[24].encap decapPk:vector(packetBytes):mean -nan
scalar SingleCell.ue[24].encap decapPk:vector(packetBytes):stddev nan
scalar SingleCell.ue[24].encap decapPk:vector(packetBytes):min inf
scalar SingleCell.ue[24].encap decapPk:vector(packetBytes):max -inf
scalar SingleCell.ue[24].encap decapPk:vector(packetBytes):starttime nan
scalar SingleCell.ue[24].encap decapPk:vector(packetBytes):endtime nan
scalar SingleCell.ue[24].encap pauseSent:vector:count 0
scalar SingleCell.ue[24].encap pauseSent:vector:sum 0
scalar SingleCell.ue[24].encap pauseSent:vector:sumweights 0
scalar SingleCell.ue[24].encap pauseSent:vector:mean -nan
scalar SingleCell.ue[24].encap pauseSent:vector:stddev nan
scalar SingleCell.ue[24].encap pauseSent:vector:min inf
scalar SingleCell.ue[24].encap pauseSent:vector:max -inf
scalar SingleCell.ue[24].encap pauseSent:vector:starttime nan
scalar SingleCell.ue[24].encap pauseSent:vector:endtime nan
scalar SingleCell.ue[24].ipv4.ip packetDropAddressResolutionFailed:vector(packetBytes):count 0
scalar SingleCell.ue[24].ipv4.ip packetDropAddressResolutionFailed:vector(packetBytes):sum 0
scalar SingleCell.ue[24].ipv4.ip packetDropAddressResolutionFailed:vector(packetBytes):sumweights 0
scalar SingleCell.ue[24].ipv4.ip packetDropAddressResolutionFailed:vector(packetBytes):mean -nan
scalar SingleCell.ue[24].ipv4.ip packetDropAddressResolutionFailed:vector(packetBytes):stddev nan
scalar SingleCell.ue[24].ipv4.ip packetDropAddressResolutionFailed:vector(packetBytes):min inf
scalar SingleCell.ue[24].ipv4.ip packetDropAddressResolutionFailed:vector(packetBytes):max -inf
scalar SingleCell.ue[24].ipv4.ip packetDropAddressResolutionFailed:vector(packetBytes):starttime nan
scalar SingleCell.ue[24].ipv4.ip packetDropAddressResolutionFailed:vector(packetBytes):endtime nan
scalar SingleCell.ue[24].ipv4.ip packetDropHopLimitReached:vector(packetBytes):count 0
scalar SingleCell.ue[24].ipv4.ip packetDropHopLimitReached:vector(packetBytes):sum 0
scalar SingleCell.ue[24].ipv4.ip packetDropHopLimitReached:vector(packetBytes):sumweights 0
scalar SingleCell.ue[24].ipv4.ip packetDropHopLimitReached:vector(packetBytes):mean -nan
scalar SingleCell.ue[24].ipv4.ip packetDropHopLimitReached:vector(packetBytes):stddev nan
scalar SingleCell.ue[24].ipv4.ip packetDropHopLimitReached:vector(packetBytes):min inf
scalar SingleCell.ue[24].ipv4.ip packetDropHopLimitReached:vector(packetBytes):max -inf
scalar SingleCell.ue[24].ipv4.ip packetDropHopLimitReached:vector(packetBytes):starttime nan
scalar SingleCell.ue[24].ipv4.ip packetDropHopLimitReached:vector(packetBytes):endtime nan
scalar SingleCell.ue[24].ipv4.ip packetDropForwardingDisabled:vector(packetBytes):count 0
scalar SingleCell.ue[24].ipv4.ip packetDropForwardingDisabled:vector(packetBytes):sum 0
scalar SingleCell.ue[24].ipv4.ip packetDropForwardingDisabled:vector(packetBytes):sumweights 0
scalar SingleCell.ue[24].ipv4.ip packetDropForwardingDisabled:vector(packetBytes):mean -nan
scalar SingleCell.ue[24].ipv4.ip packetDropForwardingDisabled:vector(packetBytes):stddev nan
scalar SingleCell.ue[24].ipv4.ip packetDropForwardingDisabled:vector(packetBytes):min inf
scalar SingleCell.ue[24].ipv4.ip packetDropForwardingDisabled:vector(packetBytes):max -inf
scalar SingleCell.ue[24].ipv4.ip packetDropForwardingDisabled:vector(packetBytes):starttime nan
scalar SingleCell.ue[24].ipv4.ip packetDropForwardingDisabled:vector(packetBytes):endtime nan
scalar SingleCell.ue[24].ipv4.ip packetDropNoInterfaceFound:vector(packetBytes):count 0
scalar SingleCell.ue[24].ipv4.ip packetDropNoInterfaceFound:vector(packetBytes):sum 0
scalar SingleCell.ue[24].ipv4.ip packetDropNoInterfaceFound:vector(packetBytes):sumweights 0
scalar SingleCell.ue[24].ipv4.ip packetDropNoInterfaceFound:vector(packetBytes):mean -nan
scalar SingleCell.ue[24].ipv4.ip packetDropNoInterfaceFound:vector(packetBytes):stddev nan
scalar SingleCell.ue[24].ipv4.ip packetDropNoInterfaceFound:vector(packetBytes):min inf
scalar SingleCell.ue[24].ipv4.ip packetDropNoInterfaceFound:vector(packetBytes):max -inf
scalar SingleCell.ue[24].ipv4.ip packetDropNoInterfaceFound:vector(packetBytes):starttime nan
scalar SingleCell.ue[24].ipv4.ip packetDropNoInterfaceFound:vector(packetBytes):endtime nan
scalar SingleCell.ue[24].ipv4.ip packetDropNoRouteFound:vector(packetBytes):count 0
scalar SingleCell.ue[24].ipv4.ip packetDropNoRouteFound:vector(packetBytes):sum 0
scalar SingleCell.ue[24].ipv4.ip packetDropNoRouteFound:vector(packetBytes):sumweights 0
scalar SingleCell.ue[24].ipv4.ip packetDropNoRouteFound:vector(packetBytes):mean -nan
scalar SingleCell.ue[24].ipv4.ip packetDropNoRouteFound:vector(packetBytes):stddev nan
scalar SingleCell.ue[24].ipv4.ip packetDropNoRouteFound:vector(packetBytes):min inf
scalar SingleCell.ue[24].ipv4.ip packetDropNoRouteFound:vector(packetBytes):max -inf
scalar SingleCell.ue[24].ipv4.ip packetDropNoRouteFound:vector(packetBytes):starttime nan
scalar SingleCell.ue[24].ipv4.ip packetDropNoRouteFound:vector(packetBytes):endtime nan
scalar SingleCell.ue[24].ipv4.ip packetDropUndefined:vector(packetBytes):count 0
scalar SingleCell.ue[24].ipv4.ip packetDropUndefined:vector(packetBytes):sum 0
scalar SingleCell.ue[24].ipv4.ip packetDropUndefined:vector(packetBytes):sumweights 0
scalar SingleCell.ue[24].ipv4.ip packetDropUndefined:vector(packetBytes):mean -nan
scalar SingleCell.ue[24].ipv4.ip packetDropUndefined:vector(packetBytes):stddev nan
scalar SingleCell.ue[24].ipv4.ip packetDropUndefined:vector(packetBytes):min inf
scalar SingleCell.ue[24].ipv4.ip packetDropUndefined:vector(packetBytes):max -inf
scalar SingleCell.ue[24].ipv4.ip packetDropUndefined:vector(packetBytes):starttime nan
scalar SingleCell.ue[24].ipv4.ip packetDropUndefined:vector(packetBytes):endtime nan
scalar SingleCell.ue[24].ipv4.arp arpRequestSent:vector(packetBytes):count 0
scalar SingleCell.ue[24].ipv4.arp arpRequestSent:vector(packetBytes):sum 0
scalar SingleCell.ue[24].ipv4.arp arpRequestSent:vector(packetBytes):sumweights 0
scalar SingleCell.ue[24].ipv4.arp arpRequestSent:vector(packetBytes):mean -nan
scalar SingleCell.ue[24].ipv4.arp arpRequestSent:vector(packetBytes):stddev nan
scalar SingleCell.ue[24].ipv4.arp arpRequestSent:vector(packetBytes):min inf
scalar SingleCell.ue[24].ipv4.arp arpRequestSent:vector(packetBytes):max -inf
scalar SingleCell.ue[24].ipv4.arp arpRequestSent:vector(packetBytes):starttime nan
scalar SingleCell.ue[24].ipv4.arp arpRequestSent:vector(packetBytes):endtime nan
scalar SingleCell.ue[24].ipv4.arp arpReplySent:vector(packetBytes):count 0
scalar SingleCell.ue[24].ipv4.arp arpReplySent:vector(packetBytes):sum 0
scalar SingleCell.ue[24].ipv4.arp arpReplySent:vector(packetBytes):sumweights 0
scalar SingleCell.ue[24].ipv4.arp arpReplySent:vector(packetBytes):mean -nan
scalar SingleCell.ue[24].ipv4.arp arpReplySent:vector(packetBytes):stddev nan
scalar SingleCell.ue[24].ipv4.arp arpReplySent:vector(packetBytes):min inf
scalar SingleCell.ue[24].ipv4.arp arpReplySent:vector(packetBytes):max -inf
scalar SingleCell.ue[24].ipv4.arp arpReplySent:vector(packetBytes):starttime nan
scalar SingleCell.ue[24].ipv4.arp arpReplySent:vector(packetBytes):endtime nan
scalar SingleCell.ue[24].udp packetSent:vector(packetBytes):count 0
scalar SingleCell.ue[24].udp packetSent:vector(packetBytes):sum 0
scalar SingleCell.ue[24].udp packetSent:vector(packetBytes):sumweights 0
scalar SingleCell.ue[24].udp packetSent:vector(packetBytes):mean -nan
scalar SingleCell.ue[24].udp packetSent:vector(packetBytes):stddev nan
scalar SingleCell.ue[24].udp packetSent:vector(packetBytes):min inf
scalar SingleCell.ue[24].udp packetSent:vector(packetBytes):max -inf
scalar SingleCell.ue[24].udp packetSent:vector(packetBytes):starttime nan
scalar SingleCell.ue[24].udp packetSent:vector(packetBytes):endtime nan
scalar SingleCell.ue[24].udp packetReceived:vector(packetBytes):count 0
scalar SingleCell.ue[24].udp packetReceived:vector(packetBytes):sum 0
scalar SingleCell.ue[24].udp packetReceived:vector(packetBytes):sumweights 0
scalar SingleCell.ue[24].udp packetReceived:vector(packetBytes):mean -nan
scalar SingleCell.ue[24].udp packetReceived:vector(packetBytes):stddev nan
scalar SingleCell.ue[24].udp packetReceived:vector(packetBytes):min inf
scalar SingleCell.ue[24].udp packetReceived:vector(packetBytes):max -inf
scalar SingleCell.ue[24].udp packetReceived:vector(packetBytes):starttime nan
scalar SingleCell.ue[24].udp packetReceived:vector(packetBytes):endtime nan
scalar SingleCell.ue[24].udp passedUpPk:vector(count):count 0
scalar SingleCell.ue[24].udp passedUpPk:vector(count):sum 0
scalar SingleCell.ue[24].udp passedUpPk:vector(count):sumweights 0
scalar SingleCell.ue[24].udp passedUpPk:vector(count):mean -nan
scalar SingleCell.ue[24].udp passedUpPk:vector(count):stddev nan
scalar SingleCell.ue[24].udp passedUpPk:vector(count):min inf
scalar SingleCell.ue[24].udp passedUpPk:vector(count):max -inf
scalar SingleCell.ue[24].udp passedUpPk:vector(count):starttime nan
scalar SingleCell.ue[24].udp passedUpPk:vector(count):endtime nan
scalar SingleCell.ue[24].udp droppedPkWrongPort:vector(count):count 0
scalar SingleCell.ue[24].udp droppedPkWrongPort:vector(count):sum 0
scalar SingleCell.ue[24].udp droppedPkWrongPort:vector(count):sumweights 0
scalar SingleCell.ue[24].udp droppedPkWrongPort:vector(count):mean -nan
scalar SingleCell.ue[24].udp droppedPkWrongPort:vector(count):stddev nan
scalar SingleCell.ue[24].udp droppedPkWrongPort:vector(count):min inf
scalar SingleCell.ue[24].udp droppedPkWrongPort:vector(count):max -inf
scalar SingleCell.ue[24].udp droppedPkWrongPort:vector(count):starttime nan
scalar SingleCell.ue[24].udp droppedPkWrongPort:vector(count):endtime nan
scalar SingleCell.ue[24].udp droppedPkBadChecksum:vector(count):count 0
scalar SingleCell.ue[24].udp droppedPkBadChecksum:vector(count):sum 0
scalar SingleCell.ue[24].udp droppedPkBadChecksum:vector(count):sumweights 0
scalar SingleCell.ue[24].udp droppedPkBadChecksum:vector(count):mean -nan
scalar SingleCell.ue[24].udp droppedPkBadChecksum:vector(count):stddev nan
scalar SingleCell.ue[24].udp droppedPkBadChecksum:vector(count):min inf
scalar SingleCell.ue[24].udp droppedPkBadChecksum:vector(count):max -inf
scalar SingleCell.ue[24].udp droppedPkBadChecksum:vector(count):starttime nan
scalar SingleCell.ue[24].udp droppedPkBadChecksum:vector(count):endtime nan
scalar SingleCell.ue[24].app[0] voipFrameDelay:vector:count 0
scalar SingleCell.ue[24].app[0] voipFrameDelay:vector:sum 0
scalar SingleCell.ue[24].app[0] voipFrameDelay:vector:sumweights 0
scalar SingleCell.ue[24].app[0] voipFrameDelay:vector:mean -nan
scalar SingleCell.ue[24].app[0] voipFrameDelay:vector:stddev nan
scalar SingleCell.ue[24].app[0] voipFrameDelay:vector:min inf
scalar SingleCell.ue[24].app[0] voipFrameDelay:vector:max -inf
scalar SingleCell.ue[24].app[0] voipFrameDelay:vector:starttime nan
scalar SingleCell.ue[24].app[0] voipFrameDelay:vector:endtime nan
scalar SingleCell.ue[24].app[0] voipReceivedThroughput:vector:count 0
scalar SingleCell.ue[24].app[0] voipReceivedThroughput:vector:sum 0
scalar SingleCell.ue[24].app[0] voipReceivedThroughput:vector:sumweights 0
scalar SingleCell.ue[24].app[0] voipReceivedThroughput:vector:mean -nan
scalar SingleCell.ue[24].app[0] voipReceivedThroughput:vector:stddev nan
scalar SingleCell.ue[24].app[0] voipReceivedThroughput:vector:min inf
scalar SingleCell.ue[24].app[0] voipReceivedThroughput:vector:max -inf
scalar SingleCell.ue[24].app[0] voipReceivedThroughput:vector:starttime nan
scalar SingleCell.ue[24].app[0] voipReceivedThroughput:vector:endtime nan
scalar SingleCell.ue[24].app[1] voipGeneratedThroughput:vector:count 0
scalar SingleCell.ue[24].app[1] voipGeneratedThroughput:vector:sum 0
scalar SingleCell.ue[24].app[1] voipGeneratedThroughput:vector:sumweights 0
scalar SingleCell.ue[24].app[1] voipGeneratedThroughput:vector:mean -nan
scalar SingleCell.ue[24].app[1] voipGeneratedThroughput:vector:stddev nan
scalar SingleCell.ue[24].app[1] voipGeneratedThroughput:vector:min inf
scalar SingleCell.ue[24].app[1] voipGeneratedThroughput:vector:max -inf
scalar SingleCell.ue[24].app[1] voipGeneratedThroughput:vector:starttime nan
scalar SingleCell.ue[24].app[1] voipGeneratedThroughput:vector:endtime nan

