version 3
run MixedTraffic-0-20260712-20:59:22-252356
attr configname MixedTraffic
attr datetime 20260712-20:59:22
attr datetimef 20260712-205922
attr experiment MixedTraffic
attr inifile omnetpp.ini
attr iterationvars ""
attr iterationvarsd ""
attr iterationvarsf ""
attr measurement ""
attr network simu5g.simulations.lte.networks.MultiCell
attr processid 252356
attr repetition 0
attr replication #0
attr resultdir results
attr runnumber 0
attr seedset 0
config **.param-recording false
config image-path /home/andras/projects/Simu5G-fork/simu5g-fork/images
config output-scalar-file results/omnetpp.ini-MixedTraffic-#0.sca
config output-scalar-precision 17
config output-vector-file results/omnetpp.ini-MixedTraffic-#0.vec
config output-vector-precision 17
config record-eventlog false
config sim-time-limit 20s
config network simu5g.simulations.lte.networks.MultiCell
config description "4 Ues downloading a video from a server while 2 of them having a voip session (ue11 and ue22)."
config **.ue11.numApps 2
config **.ue22.numApps 2
config **.ue12.numApps 1
config **.ue21.numApps 1
config **.server.numApps 1
config **.ue1*.servingNodeId 1
config **.ue2*.servingNodeId 2
config **.ue11.app[1].packetSize 40B
config **.ue11.app[1].destAddress "\"ue22\""
config **.ue11.app[1].destPort 1000
config **.ue11.app[1].localPort 3088
config **.ue11.app[1].typename VoipSender
config **.ue11.app[1].startTime uniform(0s,0.02s)
config **.ue22.app[1].typename VoipReceiver
config **.ue22.app[1].localPort 1000
config **.ue*.app[0].typename UdpVideoStreamClient
config **.ue*.app[0].serverAddress "\"server\""
config **.ue*.app[0].localPort 9999
config **.ue*.app[0].serverPort 3088
config **.ue*.app[0].startTime 0s
config **.server.app[*].typename UdpVideoStreamServer
config **.server.app[*].videoSize 10MiB
config **.server.app[*].localPort 3088
config **.server.app[*].sendInterval 10ms
config **.server.app[*].packetLen 1000B
config sim-time-limit 20s
config output-scalar-file results/MixedTraffic/0.sca
config output-vector-file results/MixedTraffic/0.vec
config seed-set 0
config **.vector-recording false
config **.mobility.constraintAreaMinZ 0m
config **.mobility.constraintAreaMaxZ 0m
config **.mobility.initFromDisplayString true
config **.numBands 6
config **.ueTxPower 26dBm
config **.eNodeBTxPower 40dBm
config *.configurator.config "xmldoc(\"./demo.xml\")"

scalar MultiCell.server.lo[0].lo rcvdPkFromHl:count 0
scalar MultiCell.server.lo[0].lo rcvdPkFromHl:sum(packetBytes) 0
scalar MultiCell.server.lo[0].lo passedUpPk:count 0
scalar MultiCell.server.lo[0].lo passedUpPk:sum(packetBytes) 0
scalar MultiCell.server.lo[0] packetDropInterfaceDown:count 0
scalar MultiCell.server.lo[0] packetDropInterfaceDown:sum(packetBytes) 0
scalar MultiCell.server.lo[0] packetDropNoCarrier:count 0
scalar MultiCell.server.lo[0] packetDropNoCarrier:sum(packetBytes) 0
scalar MultiCell.server.ppp[0].queue queueLength:last 0
scalar MultiCell.server.ppp[0].queue queueLength:max 2
scalar MultiCell.server.ppp[0].queue queueLength:timeavg 0.00023376000000000272
scalar MultiCell.server.ppp[0].queue queueBitLength:last 0
scalar MultiCell.server.ppp[0].queue queueBitLength:max 16448
scalar MultiCell.server.ppp[0].queue queueBitLength:timeavg 1.9224422400000143
scalar MultiCell.server.ppp[0].queue outgoingPackets:count 7999
scalar MultiCell.server.ppp[0].queue outgoingPacketLengths:sum 65783776
scalar MultiCell.server.ppp[0].queue incomingPackets:count 7999
scalar MultiCell.server.ppp[0].queue incomingPacketLengths:sum 65783776
scalar MultiCell.server.ppp[0].queue droppedPacketsQueueOverflow:count 0
scalar MultiCell.server.ppp[0].queue droppedPacketLengthsQueueOverflow:sum 0
scalar MultiCell.server.ppp[0].ppp transmissionState:timeavg 0.00033115859999993907
scalar MultiCell.server.ppp[0].ppp rxPkOk:count 4
scalar MultiCell.server.ppp[0].ppp rxPkOk:sum(packetBytes) 144
scalar MultiCell.server.ppp[0].ppp txPk:count 7999
scalar MultiCell.server.ppp[0].ppp txPk:sum(packetBytes) 8278965
scalar MultiCell.server.ppp[0].ppp rcvdPkFromHl:count 7999
scalar MultiCell.server.ppp[0].ppp rcvdPkFromHl:sum(packetBytes) 8222972
scalar MultiCell.server.ppp[0].ppp passedUpPk:count 4
scalar MultiCell.server.ppp[0].ppp passedUpPk:sum(packetBytes) 116
scalar MultiCell.server.ppp[0].ppp packetDropIncorrectlyReceived:count 0
scalar MultiCell.server.ppp[0].ppp packetDropIncorrectlyReceived:sum(packetBytes) 0
scalar MultiCell.server.ppp[0].ppp packetDropInterfaceDown:count 0
scalar MultiCell.server.ppp[0].ppp packetDropInterfaceDown:sum(packetBytes) 0
scalar MultiCell.server.ppp[0] packetDropInterfaceDown:count 0
scalar MultiCell.server.ppp[0] packetDropInterfaceDown:sum(packetBytes) 0
scalar MultiCell.server.ppp[0] packetDropNoCarrier:count 0
scalar MultiCell.server.ppp[0] packetDropNoCarrier:sum(packetBytes) 0
scalar MultiCell.server.ipv4.ip packetDropAddressResolutionFailed:count 0
scalar MultiCell.server.ipv4.ip packetDropAddressResolutionFailed:sum(packetBytes) 0
scalar MultiCell.server.ipv4.ip packetDropHopLimitReached:count 0
scalar MultiCell.server.ipv4.ip packetDropHopLimitReached:sum(packetBytes) 0
scalar MultiCell.server.ipv4.ip packetDropForwardingDisabled:count 0
scalar MultiCell.server.ipv4.ip packetDropForwardingDisabled:sum(packetBytes) 0
scalar MultiCell.server.ipv4.ip packetDropNoInterfaceFound:count 0
scalar MultiCell.server.ipv4.ip packetDropNoInterfaceFound:sum(packetBytes) 0
scalar MultiCell.server.ipv4.ip packetDropNoRouteFound:count 0
scalar MultiCell.server.ipv4.ip packetDropNoRouteFound:sum(packetBytes) 0
scalar MultiCell.server.ipv4.ip packetDropUndefined:count 0
scalar MultiCell.server.ipv4.ip packetDropUndefined:sum(packetBytes) 0
scalar MultiCell.server.ipv4.arp arpResolutionFailed:count 0
scalar MultiCell.server.ipv4.arp arpResolutionCompleted:count 0
scalar MultiCell.server.ipv4.arp arpResolutionInitiated:count 0
scalar MultiCell.server.ipv4.arp arpReplySent:count 0
scalar MultiCell.server.ipv4.arp arpReplySent:sum(packetBytes) 0
scalar MultiCell.server.ipv4.arp arpRequestSent:count 0
scalar MultiCell.server.ipv4.arp arpRequestSent:sum(packetBytes) 0
scalar MultiCell.server.udp packetReceived:count 4
scalar MultiCell.server.udp packetReceived:sum(packetBytes) 36
scalar MultiCell.server.udp packetSent:count 7999
scalar MultiCell.server.udp packetSent:sum(packetBytes) 8062992
scalar MultiCell.server.udp passedUpPk:count 4
scalar MultiCell.server.udp droppedPkWrongPort:count 0
scalar MultiCell.server.udp droppedPkBadChecksum:count 0
scalar MultiCell.server.app[0] packetSent:count 7999
scalar MultiCell.server.app[0] packetSent:sum(packetBytes) 7999000
scalar MultiCell.server.app[0] reqStreamBytes:count 4
scalar MultiCell.server.app[0] reqStreamBytes:sum 41943040
scalar MultiCell.pgw.lo[0].lo rcvdPkFromHl:count 0
scalar MultiCell.pgw.lo[0].lo rcvdPkFromHl:sum(packetBytes) 0
scalar MultiCell.pgw.lo[0].lo passedUpPk:count 0
scalar MultiCell.pgw.lo[0].lo passedUpPk:sum(packetBytes) 0
scalar MultiCell.pgw.lo[0] packetDropInterfaceDown:count 0
scalar MultiCell.pgw.lo[0] packetDropInterfaceDown:sum(packetBytes) 0
scalar MultiCell.pgw.lo[0] packetDropNoCarrier:count 0
scalar MultiCell.pgw.lo[0] packetDropNoCarrier:sum(packetBytes) 0
scalar MultiCell.pgw.ppp[0].queue queueLength:last 0
scalar MultiCell.pgw.ppp[0].queue queueLength:max 0
scalar MultiCell.pgw.ppp[0].queue queueLength:timeavg 0
scalar MultiCell.pgw.ppp[0].queue queueBitLength:last 0
scalar MultiCell.pgw.ppp[0].queue queueBitLength:max 0
scalar MultiCell.pgw.ppp[0].queue queueBitLength:timeavg 0
scalar MultiCell.pgw.ppp[0].queue outgoingPackets:count 3999
scalar MultiCell.pgw.ppp[0].queue outgoingPacketLengths:sum 34039488
scalar MultiCell.pgw.ppp[0].queue incomingPackets:count 3999
scalar MultiCell.pgw.ppp[0].queue incomingPacketLengths:sum 34039488
scalar MultiCell.pgw.ppp[0].queue droppedPacketsQueueOverflow:count 0
scalar MultiCell.pgw.ppp[0].queue droppedPacketLengthsQueueOverflow:sum 0
scalar MultiCell.pgw.ppp[0].ppp transmissionState:timeavg 0.00017131715999999344
scalar MultiCell.pgw.ppp[0].ppp rxPkOk:count 627
scalar MultiCell.pgw.ppp[0].ppp rxPkOk:sum(packetBytes) 69519
scalar MultiCell.pgw.ppp[0].ppp txPk:count 3999
scalar MultiCell.pgw.ppp[0].ppp txPk:sum(packetBytes) 4282929
scalar MultiCell.pgw.ppp[0].ppp rcvdPkFromHl:count 3999
scalar MultiCell.pgw.ppp[0].ppp rcvdPkFromHl:sum(packetBytes) 4254936
scalar MultiCell.pgw.ppp[0].ppp passedUpPk:count 627
scalar MultiCell.pgw.ppp[0].ppp passedUpPk:sum(packetBytes) 65130
scalar MultiCell.pgw.ppp[0].ppp packetDropIncorrectlyReceived:count 0
scalar MultiCell.pgw.ppp[0].ppp packetDropIncorrectlyReceived:sum(packetBytes) 0
scalar MultiCell.pgw.ppp[0].ppp packetDropInterfaceDown:count 0
scalar MultiCell.pgw.ppp[0].ppp packetDropInterfaceDown:sum(packetBytes) 0
scalar MultiCell.pgw.ppp[0] packetDropInterfaceDown:count 0
scalar MultiCell.pgw.ppp[0] packetDropInterfaceDown:sum(packetBytes) 0
scalar MultiCell.pgw.ppp[0] packetDropNoCarrier:count 0
scalar MultiCell.pgw.ppp[0] packetDropNoCarrier:sum(packetBytes) 0
scalar MultiCell.pgw.ppp[1].queue queueLength:last 0
scalar MultiCell.pgw.ppp[1].queue queueLength:max 1
scalar MultiCell.pgw.ppp[1].queue queueLength:timeavg 2.8800000000000732e-06
scalar MultiCell.pgw.ppp[1].queue queueBitLength:last 0
scalar MultiCell.pgw.ppp[1].queue queueBitLength:max 8512
scalar MultiCell.pgw.ppp[1].queue queueBitLength:timeavg 0.024514559999999696
scalar MultiCell.pgw.ppp[1].queue outgoingPackets:count 4625
scalar MultiCell.pgw.ppp[1].queue outgoingPacketLengths:sum 34568000
scalar MultiCell.pgw.ppp[1].queue incomingPackets:count 4625
scalar MultiCell.pgw.ppp[1].queue incomingPacketLengths:sum 34568000
scalar MultiCell.pgw.ppp[1].queue droppedPacketsQueueOverflow:count 0
scalar MultiCell.pgw.ppp[1].queue droppedPacketLengthsQueueOverflow:sum 0
scalar MultiCell.pgw.ppp[1].ppp transmissionState:timeavg 0.00017413499999999115
scalar MultiCell.pgw.ppp[1].ppp rxPkOk:count 2
scalar MultiCell.pgw.ppp[1].ppp rxPkOk:sum(packetBytes) 144
scalar MultiCell.pgw.ppp[1].ppp txPk:count 4625
scalar MultiCell.pgw.ppp[1].ppp txPk:sum(packetBytes) 4353375
scalar MultiCell.pgw.ppp[1].ppp rcvdPkFromHl:count 4625
scalar MultiCell.pgw.ppp[1].ppp rcvdPkFromHl:sum(packetBytes) 4321000
scalar MultiCell.pgw.ppp[1].ppp passedUpPk:count 2
scalar MultiCell.pgw.ppp[1].ppp passedUpPk:sum(packetBytes) 130
scalar MultiCell.pgw.ppp[1].ppp packetDropIncorrectlyReceived:count 0
scalar MultiCell.pgw.ppp[1].ppp packetDropIncorrectlyReceived:sum(packetBytes) 0
scalar MultiCell.pgw.ppp[1].ppp packetDropInterfaceDown:count 0
scalar MultiCell.pgw.ppp[1].ppp packetDropInterfaceDown:sum(packetBytes) 0
scalar MultiCell.pgw.ppp[1] packetDropInterfaceDown:count 0
scalar MultiCell.pgw.ppp[1] packetDropInterfaceDown:sum(packetBytes) 0
scalar MultiCell.pgw.ppp[1] packetDropNoCarrier:count 0
scalar MultiCell.pgw.ppp[1] packetDropNoCarrier:sum(packetBytes) 0
scalar MultiCell.pgw.ipv4.ip packetDropAddressResolutionFailed:count 0
scalar MultiCell.pgw.ipv4.ip packetDropAddressResolutionFailed:sum(packetBytes) 0
scalar MultiCell.pgw.ipv4.ip packetDropHopLimitReached:count 0
scalar MultiCell.pgw.ipv4.ip packetDropHopLimitReached:sum(packetBytes) 0
scalar MultiCell.pgw.ipv4.ip packetDropForwardingDisabled:count 0
scalar MultiCell.pgw.ipv4.ip packetDropForwardingDisabled:sum(packetBytes) 0
scalar MultiCell.pgw.ipv4.ip packetDropNoInterfaceFound:count 0
scalar MultiCell.pgw.ipv4.ip packetDropNoInterfaceFound:sum(packetBytes) 0
scalar MultiCell.pgw.ipv4.ip packetDropNoRouteFound:count 0
scalar MultiCell.pgw.ipv4.ip packetDropNoRouteFound:sum(packetBytes) 0
scalar MultiCell.pgw.ipv4.ip packetDropUndefined:count 0
scalar MultiCell.pgw.ipv4.ip packetDropUndefined:sum(packetBytes) 0
scalar MultiCell.pgw.ipv4.arp arpResolutionFailed:count 0
scalar MultiCell.pgw.ipv4.arp arpResolutionCompleted:count 0
scalar MultiCell.pgw.ipv4.arp arpResolutionInitiated:count 0
scalar MultiCell.pgw.ipv4.arp arpReplySent:count 0
scalar MultiCell.pgw.ipv4.arp arpReplySent:sum(packetBytes) 0
scalar MultiCell.pgw.ipv4.arp arpRequestSent:count 0
scalar MultiCell.pgw.ipv4.arp arpRequestSent:sum(packetBytes) 0
scalar MultiCell.pgw.udp packetReceived:count 629
scalar MultiCell.pgw.udp packetReceived:sum(packetBytes) 52680
scalar MultiCell.pgw.udp packetSent:count 8624
scalar MultiCell.pgw.udp packetSent:sum(packetBytes) 8403456
scalar MultiCell.pgw.udp passedUpPk:count 629
scalar MultiCell.pgw.udp droppedPkWrongPort:count 0
scalar MultiCell.pgw.udp droppedPkBadChecksum:count 0
scalar MultiCell.pgw.dnPpp.queue queueLength:last 0
scalar MultiCell.pgw.dnPpp.queue queueLength:max 0
scalar MultiCell.pgw.dnPpp.queue queueLength:timeavg 0
scalar MultiCell.pgw.dnPpp.queue queueBitLength:last 0
scalar MultiCell.pgw.dnPpp.queue queueBitLength:max 0
scalar MultiCell.pgw.dnPpp.queue queueBitLength:timeavg 0
scalar MultiCell.pgw.dnPpp.queue outgoingPackets:count 4
scalar MultiCell.pgw.dnPpp.queue outgoingPacketLengths:sum 928
scalar MultiCell.pgw.dnPpp.queue incomingPackets:count 4
scalar MultiCell.pgw.dnPpp.queue incomingPacketLengths:sum 928
scalar MultiCell.pgw.dnPpp.queue droppedPacketsQueueOverflow:count 0
scalar MultiCell.pgw.dnPpp.queue droppedPacketLengthsQueueOverflow:sum 0
scalar MultiCell.pgw.dnPpp.ppp transmissionState:timeavg 5.76e-09
scalar MultiCell.pgw.dnPpp.ppp rxPkOk:count 7999
scalar MultiCell.pgw.dnPpp.ppp rxPkOk:sum(packetBytes) 8278965
scalar MultiCell.pgw.dnPpp.ppp txPk:count 4
scalar MultiCell.pgw.dnPpp.ppp txPk:sum(packetBytes) 144
scalar MultiCell.pgw.dnPpp.ppp rcvdPkFromHl:count 4
scalar MultiCell.pgw.dnPpp.ppp rcvdPkFromHl:sum(packetBytes) 116
scalar MultiCell.pgw.dnPpp.ppp passedUpPk:count 7999
scalar MultiCell.pgw.dnPpp.ppp passedUpPk:sum(packetBytes) 8222972
scalar MultiCell.pgw.dnPpp.ppp packetDropIncorrectlyReceived:count 0
scalar MultiCell.pgw.dnPpp.ppp packetDropIncorrectlyReceived:sum(packetBytes) 0
scalar MultiCell.pgw.dnPpp.ppp packetDropInterfaceDown:count 0
scalar MultiCell.pgw.dnPpp.ppp packetDropInterfaceDown:sum(packetBytes) 0
scalar MultiCell.pgw.dnPpp packetDropInterfaceDown:count 0
scalar MultiCell.pgw.dnPpp packetDropInterfaceDown:sum(packetBytes) 0
scalar MultiCell.pgw.dnPpp packetDropNoCarrier:count 0
scalar MultiCell.pgw.dnPpp packetDropNoCarrier:sum(packetBytes) 0
scalar MultiCell.router.lo[0].lo rcvdPkFromHl:count 0
scalar MultiCell.router.lo[0].lo rcvdPkFromHl:sum(packetBytes) 0
scalar MultiCell.router.lo[0].lo passedUpPk:count 0
scalar MultiCell.router.lo[0].lo passedUpPk:sum(packetBytes) 0
scalar MultiCell.router.lo[0] packetDropInterfaceDown:count 0
scalar MultiCell.router.lo[0] packetDropInterfaceDown:sum(packetBytes) 0
scalar MultiCell.router.lo[0] packetDropNoCarrier:count 0
scalar MultiCell.router.lo[0] packetDropNoCarrier:sum(packetBytes) 0
scalar MultiCell.router.ppp[0].queue queueLength:last 0
scalar MultiCell.router.ppp[0].queue queueLength:max 0
scalar MultiCell.router.ppp[0].queue queueLength:timeavg 0
scalar MultiCell.router.ppp[0].queue queueBitLength:last 0
scalar MultiCell.router.ppp[0].queue queueBitLength:max 0
scalar MultiCell.router.ppp[0].queue queueBitLength:timeavg 0
scalar MultiCell.router.ppp[0].queue outgoingPackets:count 4
scalar MultiCell.router.ppp[0].queue outgoingPacketLengths:sum 928
scalar MultiCell.router.ppp[0].queue incomingPackets:count 4
scalar MultiCell.router.ppp[0].queue incomingPacketLengths:sum 928
scalar MultiCell.router.ppp[0].queue droppedPacketsQueueOverflow:count 0
scalar MultiCell.router.ppp[0].queue droppedPacketLengthsQueueOverflow:sum 0
scalar MultiCell.router.ppp[0].ppp transmissionState:timeavg 5.76e-09
scalar MultiCell.router.ppp[0].ppp rxPkOk:count 7999
scalar MultiCell.router.ppp[0].ppp rxPkOk:sum(packetBytes) 8278965
scalar MultiCell.router.ppp[0].ppp txPk:count 4
scalar MultiCell.router.ppp[0].ppp txPk:sum(packetBytes) 144
scalar MultiCell.router.ppp[0].ppp rcvdPkFromHl:count 4
scalar MultiCell.router.ppp[0].ppp rcvdPkFromHl:sum(packetBytes) 116
scalar MultiCell.router.ppp[0].ppp passedUpPk:count 7999
scalar MultiCell.router.ppp[0].ppp passedUpPk:sum(packetBytes) 8222972
scalar MultiCell.router.ppp[0].ppp packetDropIncorrectlyReceived:count 0
scalar MultiCell.router.ppp[0].ppp packetDropIncorrectlyReceived:sum(packetBytes) 0
scalar MultiCell.router.ppp[0].ppp packetDropInterfaceDown:count 0
scalar MultiCell.router.ppp[0].ppp packetDropInterfaceDown:sum(packetBytes) 0
scalar MultiCell.router.ppp[0] packetDropInterfaceDown:count 0
scalar MultiCell.router.ppp[0] packetDropInterfaceDown:sum(packetBytes) 0
scalar MultiCell.router.ppp[0] packetDropNoCarrier:count 0
scalar MultiCell.router.ppp[0] packetDropNoCarrier:sum(packetBytes) 0
scalar MultiCell.router.ppp[1].queue queueLength:last 0
scalar MultiCell.router.ppp[1].queue queueLength:max 0
scalar MultiCell.router.ppp[1].queue queueLength:timeavg 0
scalar MultiCell.router.ppp[1].queue queueBitLength:last 0
scalar MultiCell.router.ppp[1].queue queueBitLength:max 0
scalar MultiCell.router.ppp[1].queue queueBitLength:timeavg 0
scalar MultiCell.router.ppp[1].queue outgoingPackets:count 7999
scalar MultiCell.router.ppp[1].queue outgoingPacketLengths:sum 65783776
scalar MultiCell.router.ppp[1].queue incomingPackets:count 7999
scalar MultiCell.router.ppp[1].queue incomingPacketLengths:sum 65783776
scalar MultiCell.router.ppp[1].queue droppedPacketsQueueOverflow:count 0
scalar MultiCell.router.ppp[1].queue droppedPacketLengthsQueueOverflow:sum 0
scalar MultiCell.router.ppp[1].ppp transmissionState:timeavg 0.00033115859999993907
scalar MultiCell.router.ppp[1].ppp rxPkOk:count 4
scalar MultiCell.router.ppp[1].ppp rxPkOk:sum(packetBytes) 144
scalar MultiCell.router.ppp[1].ppp txPk:count 7999
scalar MultiCell.router.ppp[1].ppp txPk:sum(packetBytes) 8278965
scalar MultiCell.router.ppp[1].ppp rcvdPkFromHl:count 7999
scalar MultiCell.router.ppp[1].ppp rcvdPkFromHl:sum(packetBytes) 8222972
scalar MultiCell.router.ppp[1].ppp passedUpPk:count 4
scalar MultiCell.router.ppp[1].ppp passedUpPk:sum(packetBytes) 116
scalar MultiCell.router.ppp[1].ppp packetDropIncorrectlyReceived:count 0
scalar MultiCell.router.ppp[1].ppp packetDropIncorrectlyReceived:sum(packetBytes) 0
scalar MultiCell.router.ppp[1].ppp packetDropInterfaceDown:count 0
scalar MultiCell.router.ppp[1].ppp packetDropInterfaceDown:sum(packetBytes) 0
scalar MultiCell.router.ppp[1] packetDropInterfaceDown:count 0
scalar MultiCell.router.ppp[1] packetDropInterfaceDown:sum(packetBytes) 0
scalar MultiCell.router.ppp[1] packetDropNoCarrier:count 0
scalar MultiCell.router.ppp[1] packetDropNoCarrier:sum(packetBytes) 0
scalar MultiCell.router.ipv4.ip packetDropAddressResolutionFailed:count 0
scalar MultiCell.router.ipv4.ip packetDropAddressResolutionFailed:sum(packetBytes) 0
scalar MultiCell.router.ipv4.ip packetDropHopLimitReached:count 0
scalar MultiCell.router.ipv4.ip packetDropHopLimitReached:sum(packetBytes) 0
scalar MultiCell.router.ipv4.ip packetDropForwardingDisabled:count 0
scalar MultiCell.router.ipv4.ip packetDropForwardingDisabled:sum(packetBytes) 0
scalar MultiCell.router.ipv4.ip packetDropNoInterfaceFound:count 0
scalar MultiCell.router.ipv4.ip packetDropNoInterfaceFound:sum(packetBytes) 0
scalar MultiCell.router.ipv4.ip packetDropNoRouteFound:count 0
scalar MultiCell.router.ipv4.ip packetDropNoRouteFound:sum(packetBytes) 0
scalar MultiCell.router.ipv4.ip packetDropUndefined:count 0
scalar MultiCell.router.ipv4.ip packetDropUndefined:sum(packetBytes) 0
scalar MultiCell.router.ipv4.arp arpResolutionFailed:count 0
scalar MultiCell.router.ipv4.arp arpResolutionCompleted:count 0
scalar MultiCell.router.ipv4.arp arpResolutionInitiated:count 0
scalar MultiCell.router.ipv4.arp arpReplySent:count 0
scalar MultiCell.router.ipv4.arp arpReplySent:sum(packetBytes) 0
scalar MultiCell.router.ipv4.arp arpRequestSent:count 0
scalar MultiCell.router.ipv4.arp arpRequestSent:sum(packetBytes) 0
scalar MultiCell.eNodeB1.cellularNic.rlcMux rlcCellThroughputD2D:simu5g_rateavg -nan
scalar MultiCell.eNodeB1.cellularNic.rlcMux rlcPduThroughputD2D:simu5g_rateavg -nan
scalar MultiCell.eNodeB1.cellularNic.rlcMux rlcPduDelayD2D:mean -nan
scalar MultiCell.eNodeB1.cellularNic.rlcMux rlcThroughputD2D:simu5g_rateavg -nan
scalar MultiCell.eNodeB1.cellularNic.rlcMux rlcDelayD2D:mean -nan
scalar MultiCell.eNodeB1.cellularNic.rlcMux rlcCellThroughputUl:simu5g_rateavg 413376.06905028521
scalar MultiCell.eNodeB1.cellularNic.rlcMux rlcCellThroughputDl:simu5g_rateavg 412475.28684887599
scalar MultiCell.eNodeB1.cellularNic.rlcMux rlcPduThroughputUl:simu5g_rateavg -nan
scalar MultiCell.eNodeB1.cellularNic.rlcMux rlcPduThroughputDl:simu5g_rateavg -nan
scalar MultiCell.eNodeB1.cellularNic.rlcMux rlcPduDelayUl:mean -nan
scalar MultiCell.eNodeB1.cellularNic.rlcMux rlcPduDelayDl:mean -nan
scalar MultiCell.eNodeB1.cellularNic.rlcMux rlcThroughputUl:simu5g_rateavg -nan
scalar MultiCell.eNodeB1.cellularNic.rlcMux rlcThroughputDl:simu5g_rateavg -nan
scalar MultiCell.eNodeB1.cellularNic.rlcMux rlcDelayUl:mean -nan
scalar MultiCell.eNodeB1.cellularNic.rlcMux rlcDelayDl:mean -nan
scalar MultiCell.eNodeB1.cellularNic.rlcMux sentPacketToLowerLayer:count 11996
scalar MultiCell.eNodeB1.cellularNic.rlcMux sentPacketToLowerLayer:sum(packetBytes) 8245437
scalar MultiCell.eNodeB1.cellularNic.rlcMux receivedPacketFromLowerLayer:count 628
scalar MultiCell.eNodeB1.cellularNic.rlcMux receivedPacketFromLowerLayer:sum(packetBytes) 44441
scalar MultiCell.eNodeB1.cellularNic.mac avgServedBlocksUl:mean 0.031350000000000003
scalar MultiCell.eNodeB1.cellularNic.mac avgServedBlocksDl:mean 2.3990999999999998
scalar MultiCell.eNodeB1.cellularNic.mac harqTxAttemptsUl:mean -nan
scalar MultiCell.eNodeB1.cellularNic.mac harqTxAttemptsDl:mean -nan
scalar MultiCell.eNodeB1.cellularNic.mac harqErrorRate_4th_Ul:mean -nan
scalar MultiCell.eNodeB1.cellularNic.mac harqErrorRate_4th_Dl:mean -nan
scalar MultiCell.eNodeB1.cellularNic.mac harqErrorRate_3rd_Ul:mean -nan
scalar MultiCell.eNodeB1.cellularNic.mac harqErrorRate_3rd_Dl:mean -nan
scalar MultiCell.eNodeB1.cellularNic.mac harqErrorRate_2nd_Ul:mean -nan
scalar MultiCell.eNodeB1.cellularNic.mac harqErrorRate_2nd_Dl:mean -nan
scalar MultiCell.eNodeB1.cellularNic.mac harqErrorRate_1st_Ul:mean -nan
scalar MultiCell.eNodeB1.cellularNic.mac harqErrorRate_1st_Dl:mean -nan
scalar MultiCell.eNodeB1.cellularNic.mac harqErrorRateUl:mean -nan
scalar MultiCell.eNodeB1.cellularNic.mac harqErrorRateDl:mean -nan
scalar MultiCell.eNodeB1.cellularNic.mac macCellPacketLossUl:mean 0
scalar MultiCell.eNodeB1.cellularNic.mac macCellPacketLossDl:mean 0
scalar MultiCell.eNodeB1.cellularNic.mac macPacketLossUl:mean -nan
scalar MultiCell.eNodeB1.cellularNic.mac macPacketLossDl:mean -nan
scalar MultiCell.eNodeB1.cellularNic.mac macThroughputUl:simu5g_rateavg -nan
scalar MultiCell.eNodeB1.cellularNic.mac macThroughputDl:simu5g_rateavg -nan
scalar MultiCell.eNodeB1.cellularNic.mac macDelayUl:mean -nan
scalar MultiCell.eNodeB1.cellularNic.mac macDelayDl:mean -nan
scalar MultiCell.eNodeB1.cellularNic.mac macCellThroughputUl:simu5g_rateavg 417765.50542709103
scalar MultiCell.eNodeB1.cellularNic.mac macCellThroughputDl:simu5g_rateavg 416769.82635846804
scalar MultiCell.eNodeB1.cellularNic.mac sentPacketToLowerLayer:count 9877
scalar MultiCell.eNodeB1.cellularNic.mac sentPacketToLowerLayer:sum(packetBytes) 4148340
scalar MultiCell.eNodeB1.cellularNic.mac sentPacketToUpperLayer:count 8625
scalar MultiCell.eNodeB1.cellularNic.mac sentPacketToUpperLayer:sum(packetBytes) 52438
scalar MultiCell.eNodeB1.cellularNic.mac receivedPacketFromLowerLayer:count 15915
scalar MultiCell.eNodeB1.cellularNic.mac receivedPacketFromLowerLayer:sum(packetBytes) 60983
scalar MultiCell.eNodeB1.cellularNic.mac receivedPacketFromUpperLayer:count 11996
scalar MultiCell.eNodeB1.cellularNic.mac receivedPacketFromUpperLayer:sum(packetBytes) 8245437
scalar MultiCell.eNodeB1.cellularNic.mac macBufferOverFlowD2D:mean -nan
scalar MultiCell.eNodeB1.cellularNic.mac macBufferOverFlowUl:mean -nan
scalar MultiCell.eNodeB1.cellularNic.mac macBufferOverFlowDl:mean -nan
scalar MultiCell.eNodeB1.cellularNic.channelModel[0] measuredSinrUl:mean -nan
scalar MultiCell.eNodeB1.cellularNic.channelModel[0] measuredSinrDl:mean -nan
scalar MultiCell.eNodeB1.cellularNic.channelModel[0] rcvdSinrD2D:mean -nan
scalar MultiCell.eNodeB1.cellularNic.channelModel[0] rcvdSinrUl:mean -nan
scalar MultiCell.eNodeB1.cellularNic.channelModel[0] rcvdSinrDl:mean -nan
scalar MultiCell.eNodeB1.cellularNic packetDropInterfaceDown:count 0
scalar MultiCell.eNodeB1.cellularNic packetDropInterfaceDown:sum(packetBytes) 0
scalar MultiCell.eNodeB1.cellularNic packetDropNoCarrier:count 0
scalar MultiCell.eNodeB1.cellularNic packetDropNoCarrier:sum(packetBytes) 0
scalar MultiCell.eNodeB1.pppIf.queue queueLength:last 0
scalar MultiCell.eNodeB1.pppIf.queue queueLength:max 1
scalar MultiCell.eNodeB1.pppIf.queue queueLength:timeavg 4.4400000000000004e-09
scalar MultiCell.eNodeB1.pppIf.queue queueBitLength:last 0
scalar MultiCell.eNodeB1.pppIf.queue queueBitLength:max 520
scalar MultiCell.eNodeB1.pppIf.queue queueBitLength:timeavg 2.3087999999999998e-06
scalar MultiCell.eNodeB1.pppIf.queue outgoingPackets:count 627
scalar MultiCell.eNodeB1.pppIf.queue outgoingPacketLengths:sum 521040
scalar MultiCell.eNodeB1.pppIf.queue incomingPackets:count 627
scalar MultiCell.eNodeB1.pppIf.queue incomingPacketLengths:sum 521040
scalar MultiCell.eNodeB1.pppIf.queue droppedPacketsQueueOverflow:count 0
scalar MultiCell.eNodeB1.pppIf.queue droppedPacketLengthsQueueOverflow:sum 0
scalar MultiCell.eNodeB1.pppIf.ppp transmissionState:timeavg 2.7807599999999876e-06
scalar MultiCell.eNodeB1.pppIf.ppp rxPkOk:count 3999
scalar MultiCell.eNodeB1.pppIf.ppp rxPkOk:sum(packetBytes) 4282929
scalar MultiCell.eNodeB1.pppIf.ppp txPk:count 627
scalar MultiCell.eNodeB1.pppIf.ppp txPk:sum(packetBytes) 69519
scalar MultiCell.eNodeB1.pppIf.ppp rcvdPkFromHl:count 627
scalar MultiCell.eNodeB1.pppIf.ppp rcvdPkFromHl:sum(packetBytes) 65130
scalar MultiCell.eNodeB1.pppIf.ppp passedUpPk:count 3999
scalar MultiCell.eNodeB1.pppIf.ppp passedUpPk:sum(packetBytes) 4254936
scalar MultiCell.eNodeB1.pppIf.ppp packetDropIncorrectlyReceived:count 0
scalar MultiCell.eNodeB1.pppIf.ppp packetDropIncorrectlyReceived:sum(packetBytes) 0
scalar MultiCell.eNodeB1.pppIf.ppp packetDropInterfaceDown:count 0
scalar MultiCell.eNodeB1.pppIf.ppp packetDropInterfaceDown:sum(packetBytes) 0
scalar MultiCell.eNodeB1.pppIf packetDropInterfaceDown:count 0
scalar MultiCell.eNodeB1.pppIf packetDropInterfaceDown:sum(packetBytes) 0
scalar MultiCell.eNodeB1.pppIf packetDropNoCarrier:count 0
scalar MultiCell.eNodeB1.pppIf packetDropNoCarrier:sum(packetBytes) 0
scalar MultiCell.eNodeB1.x2ppp[0].queue queueLength:last 0
scalar MultiCell.eNodeB1.x2ppp[0].queue queueLength:max 0
scalar MultiCell.eNodeB1.x2ppp[0].queue queueLength:timeavg 0
scalar MultiCell.eNodeB1.x2ppp[0].queue queueBitLength:last 0
scalar MultiCell.eNodeB1.x2ppp[0].queue queueBitLength:max 0
scalar MultiCell.eNodeB1.x2ppp[0].queue queueBitLength:timeavg 0
scalar MultiCell.eNodeB1.x2ppp[0].queue outgoingPackets:count 0
scalar MultiCell.eNodeB1.x2ppp[0].queue outgoingPacketLengths:sum 0
scalar MultiCell.eNodeB1.x2ppp[0].queue incomingPackets:count 0
scalar MultiCell.eNodeB1.x2ppp[0].queue incomingPacketLengths:sum 0
scalar MultiCell.eNodeB1.x2ppp[0].queue droppedPacketsQueueOverflow:count 0
scalar MultiCell.eNodeB1.x2ppp[0].queue droppedPacketLengthsQueueOverflow:sum 0
scalar MultiCell.eNodeB1.x2ppp[0].ppp transmissionState:timeavg 0
scalar MultiCell.eNodeB1.x2ppp[0].ppp rxPkOk:count 0
scalar MultiCell.eNodeB1.x2ppp[0].ppp rxPkOk:sum(packetBytes) 0
scalar MultiCell.eNodeB1.x2ppp[0].ppp txPk:count 0
scalar MultiCell.eNodeB1.x2ppp[0].ppp txPk:sum(packetBytes) 0
scalar MultiCell.eNodeB1.x2ppp[0].ppp rcvdPkFromHl:count 0
scalar MultiCell.eNodeB1.x2ppp[0].ppp rcvdPkFromHl:sum(packetBytes) 0
scalar MultiCell.eNodeB1.x2ppp[0].ppp passedUpPk:count 0
scalar MultiCell.eNodeB1.x2ppp[0].ppp passedUpPk:sum(packetBytes) 0
scalar MultiCell.eNodeB1.x2ppp[0].ppp packetDropIncorrectlyReceived:count 0
scalar MultiCell.eNodeB1.x2ppp[0].ppp packetDropIncorrectlyReceived:sum(packetBytes) 0
scalar MultiCell.eNodeB1.x2ppp[0].ppp packetDropInterfaceDown:count 0
scalar MultiCell.eNodeB1.x2ppp[0].ppp packetDropInterfaceDown:sum(packetBytes) 0
scalar MultiCell.eNodeB1.x2ppp[0] packetDropInterfaceDown:count 0
scalar MultiCell.eNodeB1.x2ppp[0] packetDropInterfaceDown:sum(packetBytes) 0
scalar MultiCell.eNodeB1.x2ppp[0] packetDropNoCarrier:count 0
scalar MultiCell.eNodeB1.x2ppp[0] packetDropNoCarrier:sum(packetBytes) 0
scalar MultiCell.eNodeB1.pppMEHostIf.queue queueLength:last 0
scalar MultiCell.eNodeB1.pppMEHostIf.queue queueLength:max 0
scalar MultiCell.eNodeB1.pppMEHostIf.queue queueLength:timeavg 0
scalar MultiCell.eNodeB1.pppMEHostIf.queue queueBitLength:last 0
scalar MultiCell.eNodeB1.pppMEHostIf.queue queueBitLength:max 0
scalar MultiCell.eNodeB1.pppMEHostIf.queue queueBitLength:timeavg 0
scalar MultiCell.eNodeB1.pppMEHostIf.queue outgoingPackets:count 0
scalar MultiCell.eNodeB1.pppMEHostIf.queue outgoingPacketLengths:sum 0
scalar MultiCell.eNodeB1.pppMEHostIf.queue incomingPackets:count 0
scalar MultiCell.eNodeB1.pppMEHostIf.queue incomingPacketLengths:sum 0
scalar MultiCell.eNodeB1.pppMEHostIf.queue droppedPacketsQueueOverflow:count 0
scalar MultiCell.eNodeB1.pppMEHostIf.queue droppedPacketLengthsQueueOverflow:sum 0
scalar MultiCell.eNodeB1.pppMEHostIf.ppp transmissionState:timeavg 0
scalar MultiCell.eNodeB1.pppMEHostIf.ppp rxPkOk:count 0
scalar MultiCell.eNodeB1.pppMEHostIf.ppp rxPkOk:sum(packetBytes) 0
scalar MultiCell.eNodeB1.pppMEHostIf.ppp txPk:count 0
scalar MultiCell.eNodeB1.pppMEHostIf.ppp txPk:sum(packetBytes) 0
scalar MultiCell.eNodeB1.pppMEHostIf.ppp rcvdPkFromHl:count 0
scalar MultiCell.eNodeB1.pppMEHostIf.ppp rcvdPkFromHl:sum(packetBytes) 0
scalar MultiCell.eNodeB1.pppMEHostIf.ppp passedUpPk:count 0
scalar MultiCell.eNodeB1.pppMEHostIf.ppp passedUpPk:sum(packetBytes) 0
scalar MultiCell.eNodeB1.pppMEHostIf.ppp packetDropIncorrectlyReceived:count 0
scalar MultiCell.eNodeB1.pppMEHostIf.ppp packetDropIncorrectlyReceived:sum(packetBytes) 0
scalar MultiCell.eNodeB1.pppMEHostIf.ppp packetDropInterfaceDown:count 0
scalar MultiCell.eNodeB1.pppMEHostIf.ppp packetDropInterfaceDown:sum(packetBytes) 0
scalar MultiCell.eNodeB1.pppMEHostIf packetDropInterfaceDown:count 0
scalar MultiCell.eNodeB1.pppMEHostIf packetDropInterfaceDown:sum(packetBytes) 0
scalar MultiCell.eNodeB1.pppMEHostIf packetDropNoCarrier:count 0
scalar MultiCell.eNodeB1.pppMEHostIf packetDropNoCarrier:sum(packetBytes) 0
scalar MultiCell.eNodeB1.ipv4.ip packetDropAddressResolutionFailed:count 0
scalar MultiCell.eNodeB1.ipv4.ip packetDropAddressResolutionFailed:sum(packetBytes) 0
scalar MultiCell.eNodeB1.ipv4.ip packetDropHopLimitReached:count 0
scalar MultiCell.eNodeB1.ipv4.ip packetDropHopLimitReached:sum(packetBytes) 0
scalar MultiCell.eNodeB1.ipv4.ip packetDropForwardingDisabled:count 0
scalar MultiCell.eNodeB1.ipv4.ip packetDropForwardingDisabled:sum(packetBytes) 0
scalar MultiCell.eNodeB1.ipv4.ip packetDropNoInterfaceFound:count 0
scalar MultiCell.eNodeB1.ipv4.ip packetDropNoInterfaceFound:sum(packetBytes) 0
scalar MultiCell.eNodeB1.ipv4.ip packetDropNoRouteFound:count 0
scalar MultiCell.eNodeB1.ipv4.ip packetDropNoRouteFound:sum(packetBytes) 0
scalar MultiCell.eNodeB1.ipv4.ip packetDropUndefined:count 0
scalar MultiCell.eNodeB1.ipv4.ip packetDropUndefined:sum(packetBytes) 0
scalar MultiCell.eNodeB1.ipv4.arp arpResolutionFailed:count 0
scalar MultiCell.eNodeB1.ipv4.arp arpResolutionCompleted:count 0
scalar MultiCell.eNodeB1.ipv4.arp arpResolutionInitiated:count 0
scalar MultiCell.eNodeB1.ipv4.arp arpReplySent:count 0
scalar MultiCell.eNodeB1.ipv4.arp arpReplySent:sum(packetBytes) 0
scalar MultiCell.eNodeB1.ipv4.arp arpRequestSent:count 0
scalar MultiCell.eNodeB1.ipv4.arp arpRequestSent:sum(packetBytes) 0
scalar MultiCell.eNodeB1.udp packetReceived:count 3999
scalar MultiCell.eNodeB1.udp packetReceived:sum(packetBytes) 4174956
scalar MultiCell.eNodeB1.udp packetSent:count 627
scalar MultiCell.eNodeB1.udp packetSent:sum(packetBytes) 52590
scalar MultiCell.eNodeB1.udp passedUpPk:count 3999
scalar MultiCell.eNodeB1.udp droppedPkWrongPort:count 0
scalar MultiCell.eNodeB1.udp droppedPkBadChecksum:count 0
scalar MultiCell.eNodeB2.cellularNic.rlcMux rlcCellThroughputD2D:simu5g_rateavg -nan
scalar MultiCell.eNodeB2.cellularNic.rlcMux rlcPduThroughputD2D:simu5g_rateavg -nan
scalar MultiCell.eNodeB2.cellularNic.rlcMux rlcPduDelayD2D:mean -nan
scalar MultiCell.eNodeB2.cellularNic.rlcMux rlcThroughputD2D:simu5g_rateavg -nan
scalar MultiCell.eNodeB2.cellularNic.rlcMux rlcDelayD2D:mean -nan
scalar MultiCell.eNodeB2.cellularNic.rlcMux rlcCellThroughputUl:simu5g_rateavg 14333.333333333334
scalar MultiCell.eNodeB2.cellularNic.rlcMux rlcCellThroughputDl:simu5g_rateavg 412566.69193179172
scalar MultiCell.eNodeB2.cellularNic.rlcMux rlcPduThroughputUl:simu5g_rateavg -nan
scalar MultiCell.eNodeB2.cellularNic.rlcMux rlcPduThroughputDl:simu5g_rateavg -nan
scalar MultiCell.eNodeB2.cellularNic.rlcMux rlcPduDelayUl:mean -nan
scalar MultiCell.eNodeB2.cellularNic.rlcMux rlcPduDelayDl:mean -nan
scalar MultiCell.eNodeB2.cellularNic.rlcMux rlcThroughputUl:simu5g_rateavg -nan
scalar MultiCell.eNodeB2.cellularNic.rlcMux rlcThroughputDl:simu5g_rateavg -nan
scalar MultiCell.eNodeB2.cellularNic.rlcMux rlcDelayUl:mean -nan
scalar MultiCell.eNodeB2.cellularNic.rlcMux rlcDelayDl:mean -nan
scalar MultiCell.eNodeB2.cellularNic.rlcMux sentPacketToLowerLayer:count 18223
scalar MultiCell.eNodeB2.cellularNic.rlcMux sentPacketToLowerLayer:sum(packetBytes) 8343914
scalar MultiCell.eNodeB2.cellularNic.rlcMux receivedPacketFromLowerLayer:count 2
scalar MultiCell.eNodeB2.cellularNic.rlcMux receivedPacketFromLowerLayer:sum(packetBytes) 64
scalar MultiCell.eNodeB2.cellularNic.mac avgServedBlocksUl:mean 0.0001
scalar MultiCell.eNodeB2.cellularNic.mac avgServedBlocksDl:mean 2.4303499999999998
scalar MultiCell.eNodeB2.cellularNic.mac harqTxAttemptsUl:mean -nan
scalar MultiCell.eNodeB2.cellularNic.mac harqTxAttemptsDl:mean -nan
scalar MultiCell.eNodeB2.cellularNic.mac harqErrorRate_4th_Ul:mean -nan
scalar MultiCell.eNodeB2.cellularNic.mac harqErrorRate_4th_Dl:mean -nan
scalar MultiCell.eNodeB2.cellularNic.mac harqErrorRate_3rd_Ul:mean -nan
scalar MultiCell.eNodeB2.cellularNic.mac harqErrorRate_3rd_Dl:mean -nan
scalar MultiCell.eNodeB2.cellularNic.mac harqErrorRate_2nd_Ul:mean -nan
scalar MultiCell.eNodeB2.cellularNic.mac harqErrorRate_2nd_Dl:mean -nan
scalar MultiCell.eNodeB2.cellularNic.mac harqErrorRate_1st_Ul:mean -nan
scalar MultiCell.eNodeB2.cellularNic.mac harqErrorRate_1st_Dl:mean -nan
scalar MultiCell.eNodeB2.cellularNic.mac harqErrorRateUl:mean -nan
scalar MultiCell.eNodeB2.cellularNic.mac harqErrorRateDl:mean -nan
scalar MultiCell.eNodeB2.cellularNic.mac macCellPacketLossUl:mean 0
scalar MultiCell.eNodeB2.cellularNic.mac macCellPacketLossDl:mean 0
scalar MultiCell.eNodeB2.cellularNic.mac macPacketLossUl:mean -nan
scalar MultiCell.eNodeB2.cellularNic.mac macPacketLossDl:mean -nan
scalar MultiCell.eNodeB2.cellularNic.mac macThroughputUl:simu5g_rateavg -nan
scalar MultiCell.eNodeB2.cellularNic.mac macThroughputDl:simu5g_rateavg -nan
scalar MultiCell.eNodeB2.cellularNic.mac macDelayUl:mean -nan
scalar MultiCell.eNodeB2.cellularNic.mac macDelayDl:mean -nan
scalar MultiCell.eNodeB2.cellularNic.mac macCellThroughputUl:simu5g_rateavg 17444.444444444445
scalar MultiCell.eNodeB2.cellularNic.mac macCellThroughputDl:simu5g_rateavg 416885.13726868329
scalar MultiCell.eNodeB2.cellularNic.mac sentPacketToLowerLayer:count 13604
scalar MultiCell.eNodeB2.cellularNic.mac sentPacketToLowerLayer:sum(packetBytes) 4211991
scalar MultiCell.eNodeB2.cellularNic.mac sentPacketToUpperLayer:count 13600
scalar MultiCell.eNodeB2.cellularNic.mac sentPacketToUpperLayer:sum(packetBytes) 13662
scalar MultiCell.eNodeB2.cellularNic.mac receivedPacketFromLowerLayer:count 20267
scalar MultiCell.eNodeB2.cellularNic.mac receivedPacketFromLowerLayer:sum(packetBytes) 20333
scalar MultiCell.eNodeB2.cellularNic.mac receivedPacketFromUpperLayer:count 18223
scalar MultiCell.eNodeB2.cellularNic.mac receivedPacketFromUpperLayer:sum(packetBytes) 8343914
scalar MultiCell.eNodeB2.cellularNic.mac macBufferOverFlowD2D:mean -nan
scalar MultiCell.eNodeB2.cellularNic.mac macBufferOverFlowUl:mean -nan
scalar MultiCell.eNodeB2.cellularNic.mac macBufferOverFlowDl:mean -nan
scalar MultiCell.eNodeB2.cellularNic.channelModel[0] measuredSinrUl:mean -nan
scalar MultiCell.eNodeB2.cellularNic.channelModel[0] measuredSinrDl:mean -nan
scalar MultiCell.eNodeB2.cellularNic.channelModel[0] rcvdSinrD2D:mean -nan
scalar MultiCell.eNodeB2.cellularNic.channelModel[0] rcvdSinrUl:mean -nan
scalar MultiCell.eNodeB2.cellularNic.channelModel[0] rcvdSinrDl:mean -nan
scalar MultiCell.eNodeB2.cellularNic packetDropInterfaceDown:count 0
scalar MultiCell.eNodeB2.cellularNic packetDropInterfaceDown:sum(packetBytes) 0
scalar MultiCell.eNodeB2.cellularNic packetDropNoCarrier:count 0
scalar MultiCell.eNodeB2.cellularNic packetDropNoCarrier:sum(packetBytes) 0
scalar MultiCell.eNodeB2.pppIf.queue queueLength:last 0
scalar MultiCell.eNodeB2.pppIf.queue queueLength:max 1
scalar MultiCell.eNodeB2.pppIf.queue queueLength:timeavg 2.88e-09
scalar MultiCell.eNodeB2.pppIf.queue queueBitLength:last 0
scalar MultiCell.eNodeB2.pppIf.queue queueBitLength:max 520
scalar MultiCell.eNodeB2.pppIf.queue queueBitLength:timeavg 1.4976000000000001e-06
scalar MultiCell.eNodeB2.pppIf.queue outgoingPackets:count 2
scalar MultiCell.eNodeB2.pppIf.queue outgoingPacketLengths:sum 1040
scalar MultiCell.eNodeB2.pppIf.queue incomingPackets:count 2
scalar MultiCell.eNodeB2.pppIf.queue incomingPacketLengths:sum 1040
scalar MultiCell.eNodeB2.pppIf.queue droppedPacketsQueueOverflow:count 0
scalar MultiCell.eNodeB2.pppIf.queue droppedPacketLengthsQueueOverflow:sum 0
scalar MultiCell.eNodeB2.pppIf.ppp transmissionState:timeavg 5.76e-09
scalar MultiCell.eNodeB2.pppIf.ppp rxPkOk:count 4625
scalar MultiCell.eNodeB2.pppIf.ppp rxPkOk:sum(packetBytes) 4353375
scalar MultiCell.eNodeB2.pppIf.ppp txPk:count 2
scalar MultiCell.eNodeB2.pppIf.ppp txPk:sum(packetBytes) 144
scalar MultiCell.eNodeB2.pppIf.ppp rcvdPkFromHl:count 2
scalar MultiCell.eNodeB2.pppIf.ppp rcvdPkFromHl:sum(packetBytes) 130
scalar MultiCell.eNodeB2.pppIf.ppp passedUpPk:count 4625
scalar MultiCell.eNodeB2.pppIf.ppp passedUpPk:sum(packetBytes) 4321000
scalar MultiCell.eNodeB2.pppIf.ppp packetDropIncorrectlyReceived:count 0
scalar MultiCell.eNodeB2.pppIf.ppp packetDropIncorrectlyReceived:sum(packetBytes) 0
scalar MultiCell.eNodeB2.pppIf.ppp packetDropInterfaceDown:count 0
scalar MultiCell.eNodeB2.pppIf.ppp packetDropInterfaceDown:sum(packetBytes) 0
scalar MultiCell.eNodeB2.pppIf packetDropInterfaceDown:count 0
scalar MultiCell.eNodeB2.pppIf packetDropInterfaceDown:sum(packetBytes) 0
scalar MultiCell.eNodeB2.pppIf packetDropNoCarrier:count 0
scalar MultiCell.eNodeB2.pppIf packetDropNoCarrier:sum(packetBytes) 0
scalar MultiCell.eNodeB2.x2ppp[0].queue queueLength:last 0
scalar MultiCell.eNodeB2.x2ppp[0].queue queueLength:max 0
scalar MultiCell.eNodeB2.x2ppp[0].queue queueLength:timeavg 0
scalar MultiCell.eNodeB2.x2ppp[0].queue queueBitLength:last 0
scalar MultiCell.eNodeB2.x2ppp[0].queue queueBitLength:max 0
scalar MultiCell.eNodeB2.x2ppp[0].queue queueBitLength:timeavg 0
scalar MultiCell.eNodeB2.x2ppp[0].queue outgoingPackets:count 0
scalar MultiCell.eNodeB2.x2ppp[0].queue outgoingPacketLengths:sum 0
scalar MultiCell.eNodeB2.x2ppp[0].queue incomingPackets:count 0
scalar MultiCell.eNodeB2.x2ppp[0].queue incomingPacketLengths:sum 0
scalar MultiCell.eNodeB2.x2ppp[0].queue droppedPacketsQueueOverflow:count 0
scalar MultiCell.eNodeB2.x2ppp[0].queue droppedPacketLengthsQueueOverflow:sum 0
scalar MultiCell.eNodeB2.x2ppp[0].ppp transmissionState:timeavg 0
scalar MultiCell.eNodeB2.x2ppp[0].ppp rxPkOk:count 0
scalar MultiCell.eNodeB2.x2ppp[0].ppp rxPkOk:sum(packetBytes) 0
scalar MultiCell.eNodeB2.x2ppp[0].ppp txPk:count 0
scalar MultiCell.eNodeB2.x2ppp[0].ppp txPk:sum(packetBytes) 0
scalar MultiCell.eNodeB2.x2ppp[0].ppp rcvdPkFromHl:count 0
scalar MultiCell.eNodeB2.x2ppp[0].ppp rcvdPkFromHl:sum(packetBytes) 0
scalar MultiCell.eNodeB2.x2ppp[0].ppp passedUpPk:count 0
scalar MultiCell.eNodeB2.x2ppp[0].ppp passedUpPk:sum(packetBytes) 0
scalar MultiCell.eNodeB2.x2ppp[0].ppp packetDropIncorrectlyReceived:count 0
scalar MultiCell.eNodeB2.x2ppp[0].ppp packetDropIncorrectlyReceived:sum(packetBytes) 0
scalar MultiCell.eNodeB2.x2ppp[0].ppp packetDropInterfaceDown:count 0
scalar MultiCell.eNodeB2.x2ppp[0].ppp packetDropInterfaceDown:sum(packetBytes) 0
scalar MultiCell.eNodeB2.x2ppp[0] packetDropInterfaceDown:count 0
scalar MultiCell.eNodeB2.x2ppp[0] packetDropInterfaceDown:sum(packetBytes) 0
scalar MultiCell.eNodeB2.x2ppp[0] packetDropNoCarrier:count 0
scalar MultiCell.eNodeB2.x2ppp[0] packetDropNoCarrier:sum(packetBytes) 0
scalar MultiCell.eNodeB2.pppMEHostIf.queue queueLength:last 0
scalar MultiCell.eNodeB2.pppMEHostIf.queue queueLength:max 0
scalar MultiCell.eNodeB2.pppMEHostIf.queue queueLength:timeavg 0
scalar MultiCell.eNodeB2.pppMEHostIf.queue queueBitLength:last 0
scalar MultiCell.eNodeB2.pppMEHostIf.queue queueBitLength:max 0
scalar MultiCell.eNodeB2.pppMEHostIf.queue queueBitLength:timeavg 0
scalar MultiCell.eNodeB2.pppMEHostIf.queue outgoingPackets:count 0
scalar MultiCell.eNodeB2.pppMEHostIf.queue outgoingPacketLengths:sum 0
scalar MultiCell.eNodeB2.pppMEHostIf.queue incomingPackets:count 0
scalar MultiCell.eNodeB2.pppMEHostIf.queue incomingPacketLengths:sum 0
scalar MultiCell.eNodeB2.pppMEHostIf.queue droppedPacketsQueueOverflow:count 0
scalar MultiCell.eNodeB2.pppMEHostIf.queue droppedPacketLengthsQueueOverflow:sum 0
scalar MultiCell.eNodeB2.pppMEHostIf.ppp transmissionState:timeavg 0
scalar MultiCell.eNodeB2.pppMEHostIf.ppp rxPkOk:count 0
scalar MultiCell.eNodeB2.pppMEHostIf.ppp rxPkOk:sum(packetBytes) 0
scalar MultiCell.eNodeB2.pppMEHostIf.ppp txPk:count 0
scalar MultiCell.eNodeB2.pppMEHostIf.ppp txPk:sum(packetBytes) 0
scalar MultiCell.eNodeB2.pppMEHostIf.ppp rcvdPkFromHl:count 0
scalar MultiCell.eNodeB2.pppMEHostIf.ppp rcvdPkFromHl:sum(packetBytes) 0
scalar MultiCell.eNodeB2.pppMEHostIf.ppp passedUpPk:count 0
scalar MultiCell.eNodeB2.pppMEHostIf.ppp passedUpPk:sum(packetBytes) 0
scalar MultiCell.eNodeB2.pppMEHostIf.ppp packetDropIncorrectlyReceived:count 0
scalar MultiCell.eNodeB2.pppMEHostIf.ppp packetDropIncorrectlyReceived:sum(packetBytes) 0
scalar MultiCell.eNodeB2.pppMEHostIf.ppp packetDropInterfaceDown:count 0
scalar MultiCell.eNodeB2.pppMEHostIf.ppp packetDropInterfaceDown:sum(packetBytes) 0
scalar MultiCell.eNodeB2.pppMEHostIf packetDropInterfaceDown:count 0
scalar MultiCell.eNodeB2.pppMEHostIf packetDropInterfaceDown:sum(packetBytes) 0
scalar MultiCell.eNodeB2.pppMEHostIf packetDropNoCarrier:count 0
scalar MultiCell.eNodeB2.pppMEHostIf packetDropNoCarrier:sum(packetBytes) 0
scalar MultiCell.eNodeB2.ipv4.ip packetDropAddressResolutionFailed:count 0
scalar MultiCell.eNodeB2.ipv4.ip packetDropAddressResolutionFailed:sum(packetBytes) 0
scalar MultiCell.eNodeB2.ipv4.ip packetDropHopLimitReached:count 0
scalar MultiCell.eNodeB2.ipv4.ip packetDropHopLimitReached:sum(packetBytes) 0
scalar MultiCell.eNodeB2.ipv4.ip packetDropForwardingDisabled:count 0
scalar MultiCell.eNodeB2.ipv4.ip packetDropForwardingDisabled:sum(packetBytes) 0
scalar MultiCell.eNodeB2.ipv4.ip packetDropNoInterfaceFound:count 0
scalar MultiCell.eNodeB2.ipv4.ip packetDropNoInterfaceFound:sum(packetBytes) 0
scalar MultiCell.eNodeB2.ipv4.ip packetDropNoRouteFound:count 0
scalar MultiCell.eNodeB2.ipv4.ip packetDropNoRouteFound:sum(packetBytes) 0
scalar MultiCell.eNodeB2.ipv4.ip packetDropUndefined:count 0
scalar MultiCell.eNodeB2.ipv4.ip packetDropUndefined:sum(packetBytes) 0
scalar MultiCell.eNodeB2.ipv4.arp arpResolutionFailed:count 0
scalar MultiCell.eNodeB2.ipv4.arp arpResolutionCompleted:count 0
scalar MultiCell.eNodeB2.ipv4.arp arpResolutionInitiated:count 0
scalar MultiCell.eNodeB2.ipv4.arp arpReplySent:count 0
scalar MultiCell.eNodeB2.ipv4.arp arpReplySent:sum(packetBytes) 0
scalar MultiCell.eNodeB2.ipv4.arp arpRequestSent:count 0
scalar MultiCell.eNodeB2.ipv4.arp arpRequestSent:sum(packetBytes) 0
scalar MultiCell.eNodeB2.udp packetReceived:count 4625
scalar MultiCell.eNodeB2.udp packetReceived:sum(packetBytes) 4228500
scalar MultiCell.eNodeB2.udp packetSent:count 2
scalar MultiCell.eNodeB2.udp packetSent:sum(packetBytes) 90
scalar MultiCell.eNodeB2.udp passedUpPk:count 4625
scalar MultiCell.eNodeB2.udp droppedPkWrongPort:count 0
scalar MultiCell.eNodeB2.udp droppedPkBadChecksum:count 0
scalar MultiCell.ue11.lo[0].lo rcvdPkFromHl:count 0
scalar MultiCell.ue11.lo[0].lo rcvdPkFromHl:sum(packetBytes) 0
scalar MultiCell.ue11.lo[0].lo passedUpPk:count 0
scalar MultiCell.ue11.lo[0].lo passedUpPk:sum(packetBytes) 0
scalar MultiCell.ue11.lo[0] packetDropInterfaceDown:count 0
scalar MultiCell.ue11.lo[0] packetDropInterfaceDown:sum(packetBytes) 0
scalar MultiCell.ue11.lo[0] packetDropNoCarrier:count 0
scalar MultiCell.ue11.lo[0] packetDropNoCarrier:sum(packetBytes) 0
scalar MultiCell.ue11.cellularNic.rlcMux rlcCellThroughputD2D:simu5g_rateavg -nan
scalar MultiCell.ue11.cellularNic.rlcMux rlcPduThroughputD2D:simu5g_rateavg -nan
scalar MultiCell.ue11.cellularNic.rlcMux rlcPduDelayD2D:mean -nan
scalar MultiCell.ue11.cellularNic.rlcMux rlcThroughputD2D:simu5g_rateavg -nan
scalar MultiCell.ue11.cellularNic.rlcMux rlcDelayD2D:mean -nan
scalar MultiCell.ue11.cellularNic.rlcMux rlcCellThroughputUl:simu5g_rateavg -nan
scalar MultiCell.ue11.cellularNic.rlcMux rlcCellThroughputDl:simu5g_rateavg -nan
scalar MultiCell.ue11.cellularNic.rlcMux rlcPduThroughputUl:simu5g_rateavg 0
scalar MultiCell.ue11.cellularNic.rlcMux rlcPduThroughputDl:simu5g_rateavg 0
scalar MultiCell.ue11.cellularNic.rlcMux rlcPduDelayUl:mean 0.0040000000000000027
scalar MultiCell.ue11.cellularNic.rlcMux rlcPduDelayDl:mean 0.0039999999999996705
scalar MultiCell.ue11.cellularNic.rlcMux rlcThroughputUl:simu5g_rateavg 1362.8577084233834
scalar MultiCell.ue11.cellularNic.rlcMux rlcThroughputDl:simu5g_rateavg 102467.46619377914
scalar MultiCell.ue11.cellularNic.rlcMux rlcDelayUl:mean 0.0085995304528897441
scalar MultiCell.ue11.cellularNic.rlcMux rlcDelayDl:mean 0.0059970719999999931
scalar MultiCell.ue11.cellularNic.rlcMux sentPacketToLowerLayer:count 1253
scalar MultiCell.ue11.cellularNic.rlcMux sentPacketToLowerLayer:sum(packetBytes) 87564
scalar MultiCell.ue11.cellularNic.rlcMux receivedPacketFromLowerLayer:count 3997
scalar MultiCell.ue11.cellularNic.rlcMux receivedPacketFromLowerLayer:sum(packetBytes) 2064466
scalar MultiCell.ue11.cellularNic.mac harqTxAttemptsUl:mean 1
scalar MultiCell.ue11.cellularNic.mac harqTxAttemptsDl:mean 1
scalar MultiCell.ue11.cellularNic.mac harqErrorRate_4th_Ul:mean -nan
scalar MultiCell.ue11.cellularNic.mac harqErrorRate_4th_Dl:mean -nan
scalar MultiCell.ue11.cellularNic.mac harqErrorRate_3rd_Ul:mean -nan
scalar MultiCell.ue11.cellularNic.mac harqErrorRate_3rd_Dl:mean -nan
scalar MultiCell.ue11.cellularNic.mac harqErrorRate_2nd_Ul:mean -nan
scalar MultiCell.ue11.cellularNic.mac harqErrorRate_2nd_Dl:mean -nan
scalar MultiCell.ue11.cellularNic.mac harqErrorRate_1st_Ul:mean 0
scalar MultiCell.ue11.cellularNic.mac harqErrorRate_1st_Dl:mean 0
scalar MultiCell.ue11.cellularNic.mac harqErrorRateUl:mean 0
scalar MultiCell.ue11.cellularNic.mac harqErrorRateDl:mean 0
scalar MultiCell.ue11.cellularNic.mac macCellPacketLossUl:mean -nan
scalar MultiCell.ue11.cellularNic.mac macCellPacketLossDl:mean -nan
scalar MultiCell.ue11.cellularNic.mac macPacketLossUl:mean 0
scalar MultiCell.ue11.cellularNic.mac macPacketLossDl:mean 0
scalar MultiCell.ue11.cellularNic.mac macThroughputUl:simu5g_rateavg 1448.9954579919131
scalar MultiCell.ue11.cellularNic.mac macThroughputDl:simu5g_rateavg 103119.60659769393
scalar MultiCell.ue11.cellularNic.mac macDelayUl:mean 0.0040000000000000027
scalar MultiCell.ue11.cellularNic.mac macDelayDl:mean 0.0039999999999996705
scalar MultiCell.ue11.cellularNic.mac macCellThroughputUl:simu5g_rateavg -nan
scalar MultiCell.ue11.cellularNic.mac macCellThroughputDl:simu5g_rateavg -nan
scalar MultiCell.ue11.cellularNic.mac sentPacketToLowerLayer:count 5248
scalar MultiCell.ue11.cellularNic.mac sentPacketToLowerLayer:sum(packetBytes) 50283
scalar MultiCell.ue11.cellularNic.mac sentPacketToUpperLayer:count 4624
scalar MultiCell.ue11.cellularNic.mac sentPacketToUpperLayer:sum(packetBytes) 2065093
scalar MultiCell.ue11.cellularNic.mac receivedPacketFromLowerLayer:count 5875
scalar MultiCell.ue11.cellularNic.mac receivedPacketFromLowerLayer:sum(packetBytes) 2074840
scalar MultiCell.ue11.cellularNic.mac receivedPacketFromUpperLayer:count 1253
scalar MultiCell.ue11.cellularNic.mac receivedPacketFromUpperLayer:sum(packetBytes) 87564
scalar MultiCell.ue11.cellularNic.mac macBufferOverFlowD2D:mean -nan
scalar MultiCell.ue11.cellularNic.mac macBufferOverFlowUl:mean -nan
scalar MultiCell.ue11.cellularNic.mac macBufferOverFlowDl:mean -nan
scalar MultiCell.ue11.cellularNic.phy distance:mean -nan
scalar MultiCell.ue11.cellularNic.phy averageCqiUl:mean 14
scalar MultiCell.ue11.cellularNic.phy averageCqiUl:count 626
scalar MultiCell.ue11.cellularNic.phy averageCqiDl:mean 15
scalar MultiCell.ue11.cellularNic.phy averageCqiDl:count 3998
scalar MultiCell.ue11.cellularNic.channelModel[0] measuredSinrUl:mean 40.731029519665938
scalar MultiCell.ue11.cellularNic.channelModel[0] measuredSinrDl:mean 43.980897225261828
scalar MultiCell.ue11.cellularNic.channelModel[0] rcvdSinrD2D:mean -nan
scalar MultiCell.ue11.cellularNic.channelModel[0] rcvdSinrUl:mean 44.919621173212434
scalar MultiCell.ue11.cellularNic.channelModel[0] rcvdSinrDl:mean 43.980897225262339
scalar MultiCell.ue11.cellularNic packetDropInterfaceDown:count 0
scalar MultiCell.ue11.cellularNic packetDropInterfaceDown:sum(packetBytes) 0
scalar MultiCell.ue11.cellularNic packetDropNoCarrier:count 0
scalar MultiCell.ue11.cellularNic packetDropNoCarrier:sum(packetBytes) 0
scalar MultiCell.ue11.encap pauseSent:count 0
scalar MultiCell.ue11.encap pauseSent:sum 0
scalar MultiCell.ue11.encap decapPk:count 0
scalar MultiCell.ue11.encap decapPk:sum(packetBytes) 0
scalar MultiCell.ue11.encap encapPk:count 0
scalar MultiCell.ue11.encap encapPk:sum(packetBytes) 0
scalar MultiCell.ue11.ipv4.ip packetDropAddressResolutionFailed:count 0
scalar MultiCell.ue11.ipv4.ip packetDropAddressResolutionFailed:sum(packetBytes) 0
scalar MultiCell.ue11.ipv4.ip packetDropHopLimitReached:count 0
scalar MultiCell.ue11.ipv4.ip packetDropHopLimitReached:sum(packetBytes) 0
scalar MultiCell.ue11.ipv4.ip packetDropForwardingDisabled:count 0
scalar MultiCell.ue11.ipv4.ip packetDropForwardingDisabled:sum(packetBytes) 0
scalar MultiCell.ue11.ipv4.ip packetDropNoInterfaceFound:count 0
scalar MultiCell.ue11.ipv4.ip packetDropNoInterfaceFound:sum(packetBytes) 0
scalar MultiCell.ue11.ipv4.ip packetDropNoRouteFound:count 0
scalar MultiCell.ue11.ipv4.ip packetDropNoRouteFound:sum(packetBytes) 0
scalar MultiCell.ue11.ipv4.ip packetDropUndefined:count 0
scalar MultiCell.ue11.ipv4.ip packetDropUndefined:sum(packetBytes) 0
scalar MultiCell.ue11.ipv4.arp arpResolutionFailed:count 0
scalar MultiCell.ue11.ipv4.arp arpResolutionCompleted:count 0
scalar MultiCell.ue11.ipv4.arp arpResolutionInitiated:count 0
scalar MultiCell.ue11.ipv4.arp arpReplySent:count 0
scalar MultiCell.ue11.ipv4.arp arpReplySent:sum(packetBytes) 0
scalar MultiCell.ue11.ipv4.arp arpRequestSent:count 0
scalar MultiCell.ue11.ipv4.arp arpRequestSent:sum(packetBytes) 0
scalar MultiCell.ue11.udp packetReceived:count 1998
scalar MultiCell.ue11.udp packetReceived:sum(packetBytes) 2013984
scalar MultiCell.ue11.udp packetSent:count 626
scalar MultiCell.ue11.udp packetSent:sum(packetBytes) 30009
scalar MultiCell.ue11.udp passedUpPk:count 1998
scalar MultiCell.ue11.udp droppedPkWrongPort:count 0
scalar MultiCell.ue11.udp droppedPkBadChecksum:count 0
scalar MultiCell.ue11.app[0] packetReceived:count 1998
scalar MultiCell.ue11.app[0] packetReceived:sum(packetBytes) 1998000
scalar MultiCell.ue11.app[1] voipGeneratedThroughput:simu5g_rateavg 790.64380689698601
scalar MultiCell.ue12.lo[0].lo rcvdPkFromHl:count 0
scalar MultiCell.ue12.lo[0].lo rcvdPkFromHl:sum(packetBytes) 0
scalar MultiCell.ue12.lo[0].lo passedUpPk:count 0
scalar MultiCell.ue12.lo[0].lo passedUpPk:sum(packetBytes) 0
scalar MultiCell.ue12.lo[0] packetDropInterfaceDown:count 0
scalar MultiCell.ue12.lo[0] packetDropInterfaceDown:sum(packetBytes) 0
scalar MultiCell.ue12.lo[0] packetDropNoCarrier:count 0
scalar MultiCell.ue12.lo[0] packetDropNoCarrier:sum(packetBytes) 0
scalar MultiCell.ue12.cellularNic.rlcMux rlcCellThroughputD2D:simu5g_rateavg -nan
scalar MultiCell.ue12.cellularNic.rlcMux rlcPduThroughputD2D:simu5g_rateavg -nan
scalar MultiCell.ue12.cellularNic.rlcMux rlcPduDelayD2D:mean -nan
scalar MultiCell.ue12.cellularNic.rlcMux rlcThroughputD2D:simu5g_rateavg -nan
scalar MultiCell.ue12.cellularNic.rlcMux rlcDelayD2D:mean -nan
scalar MultiCell.ue12.cellularNic.rlcMux rlcCellThroughputUl:simu5g_rateavg -nan
scalar MultiCell.ue12.cellularNic.rlcMux rlcCellThroughputDl:simu5g_rateavg -nan
scalar MultiCell.ue12.cellularNic.rlcMux rlcPduThroughputUl:simu5g_rateavg 0
scalar MultiCell.ue12.cellularNic.rlcMux rlcPduThroughputDl:simu5g_rateavg 0
scalar MultiCell.ue12.cellularNic.rlcMux rlcPduDelayUl:mean 0.0040000000000000001
scalar MultiCell.ue12.cellularNic.rlcMux rlcPduDelayDl:mean 0.0039999999999996705
scalar MultiCell.ue12.cellularNic.rlcMux rlcThroughputUl:simu5g_rateavg 3333.3333333333335
scalar MultiCell.ue12.cellularNic.rlcMux rlcThroughputDl:simu5g_rateavg 102696.77968346195
scalar MultiCell.ue12.cellularNic.rlcMux rlcDelayUl:mean 0.0089999999999999993
scalar MultiCell.ue12.cellularNic.rlcMux rlcDelayDl:mean 0.0059954159999998655
scalar MultiCell.ue12.cellularNic.rlcMux sentPacketToLowerLayer:count 2
scalar MultiCell.ue12.cellularNic.rlcMux sentPacketToLowerLayer:sum(packetBytes) 62
scalar MultiCell.ue12.cellularNic.rlcMux receivedPacketFromLowerLayer:count 3998
scalar MultiCell.ue12.cellularNic.rlcMux receivedPacketFromLowerLayer:sum(packetBytes) 2064967
scalar MultiCell.ue12.cellularNic.mac harqTxAttemptsUl:mean 1
scalar MultiCell.ue12.cellularNic.mac harqTxAttemptsDl:mean 1
scalar MultiCell.ue12.cellularNic.mac harqErrorRate_4th_Ul:mean -nan
scalar MultiCell.ue12.cellularNic.mac harqErrorRate_4th_Dl:mean -nan
scalar MultiCell.ue12.cellularNic.mac harqErrorRate_3rd_Ul:mean -nan
scalar MultiCell.ue12.cellularNic.mac harqErrorRate_3rd_Dl:mean -nan
scalar MultiCell.ue12.cellularNic.mac harqErrorRate_2nd_Ul:mean -nan
scalar MultiCell.ue12.cellularNic.mac harqErrorRate_2nd_Dl:mean -nan
scalar MultiCell.ue12.cellularNic.mac harqErrorRate_1st_Ul:mean 0
scalar MultiCell.ue12.cellularNic.mac harqErrorRate_1st_Dl:mean 0
scalar MultiCell.ue12.cellularNic.mac harqErrorRateUl:mean 0
scalar MultiCell.ue12.cellularNic.mac harqErrorRateDl:mean 0
scalar MultiCell.ue12.cellularNic.mac macCellPacketLossUl:mean -nan
scalar MultiCell.ue12.cellularNic.mac macCellPacketLossDl:mean -nan
scalar MultiCell.ue12.cellularNic.mac macPacketLossUl:mean 0
scalar MultiCell.ue12.cellularNic.mac macPacketLossDl:mean 0
scalar MultiCell.ue12.cellularNic.mac macThroughputUl:simu5g_rateavg 3777.7777777777783
scalar MultiCell.ue12.cellularNic.mac macThroughputDl:simu5g_rateavg 103347.45378745065
scalar MultiCell.ue12.cellularNic.mac macDelayUl:mean 0.0040000000000000001
scalar MultiCell.ue12.cellularNic.mac macDelayDl:mean 0.0039999999999996705
scalar MultiCell.ue12.cellularNic.mac macCellThroughputUl:simu5g_rateavg -nan
scalar MultiCell.ue12.cellularNic.mac macCellThroughputDl:simu5g_rateavg -nan
scalar MultiCell.ue12.cellularNic.mac sentPacketToLowerLayer:count 4000
scalar MultiCell.ue12.cellularNic.mac sentPacketToLowerLayer:sum(packetBytes) 4033
scalar MultiCell.ue12.cellularNic.mac sentPacketToUpperLayer:count 3999
scalar MultiCell.ue12.cellularNic.mac sentPacketToUpperLayer:sum(packetBytes) 2064968
scalar MultiCell.ue12.cellularNic.mac receivedPacketFromLowerLayer:count 4001
scalar MultiCell.ue12.cellularNic.mac receivedPacketFromLowerLayer:sum(packetBytes) 2072966
scalar MultiCell.ue12.cellularNic.mac receivedPacketFromUpperLayer:count 2
scalar MultiCell.ue12.cellularNic.mac receivedPacketFromUpperLayer:sum(packetBytes) 62
scalar MultiCell.ue12.cellularNic.mac macBufferOverFlowD2D:mean -nan
scalar MultiCell.ue12.cellularNic.mac macBufferOverFlowUl:mean -nan
scalar MultiCell.ue12.cellularNic.mac macBufferOverFlowDl:mean -nan
scalar MultiCell.ue12.cellularNic.phy distance:mean -nan
scalar MultiCell.ue12.cellularNic.phy averageCqiUl:mean 14
scalar MultiCell.ue12.cellularNic.phy averageCqiUl:count 1
scalar MultiCell.ue12.cellularNic.phy averageCqiDl:mean 15
scalar MultiCell.ue12.cellularNic.phy averageCqiDl:count 3998
scalar MultiCell.ue12.cellularNic.channelModel[0] measuredSinrUl:mean 41.991379339759021
scalar MultiCell.ue12.cellularNic.channelModel[0] measuredSinrDl:mean 56.341737073692542
scalar MultiCell.ue12.cellularNic.channelModel[0] rcvdSinrD2D:mean -nan
scalar MultiCell.ue12.cellularNic.channelModel[0] rcvdSinrUl:mean 35.092328623178432
scalar MultiCell.ue12.cellularNic.channelModel[0] rcvdSinrDl:mean 56.341737073693885
scalar MultiCell.ue12.cellularNic packetDropInterfaceDown:count 0
scalar MultiCell.ue12.cellularNic packetDropInterfaceDown:sum(packetBytes) 0
scalar MultiCell.ue12.cellularNic packetDropNoCarrier:count 0
scalar MultiCell.ue12.cellularNic packetDropNoCarrier:sum(packetBytes) 0
scalar MultiCell.ue12.encap pauseSent:count 0
scalar MultiCell.ue12.encap pauseSent:sum 0
scalar MultiCell.ue12.encap decapPk:count 0
scalar MultiCell.ue12.encap decapPk:sum(packetBytes) 0
scalar MultiCell.ue12.encap encapPk:count 0
scalar MultiCell.ue12.encap encapPk:sum(packetBytes) 0
scalar MultiCell.ue12.ipv4.ip packetDropAddressResolutionFailed:count 0
scalar MultiCell.ue12.ipv4.ip packetDropAddressResolutionFailed:sum(packetBytes) 0
scalar MultiCell.ue12.ipv4.ip packetDropHopLimitReached:count 0
scalar MultiCell.ue12.ipv4.ip packetDropHopLimitReached:sum(packetBytes) 0
scalar MultiCell.ue12.ipv4.ip packetDropForwardingDisabled:count 0
scalar MultiCell.ue12.ipv4.ip packetDropForwardingDisabled:sum(packetBytes) 0
scalar MultiCell.ue12.ipv4.ip packetDropNoInterfaceFound:count 0
scalar MultiCell.ue12.ipv4.ip packetDropNoInterfaceFound:sum(packetBytes) 0
scalar MultiCell.ue12.ipv4.ip packetDropNoRouteFound:count 0
scalar MultiCell.ue12.ipv4.ip packetDropNoRouteFound:sum(packetBytes) 0
scalar MultiCell.ue12.ipv4.ip packetDropUndefined:count 0
scalar MultiCell.ue12.ipv4.ip packetDropUndefined:sum(packetBytes) 0
scalar MultiCell.ue12.ipv4.arp arpResolutionFailed:count 0
scalar MultiCell.ue12.ipv4.arp arpResolutionCompleted:count 0
scalar MultiCell.ue12.ipv4.arp arpResolutionInitiated:count 0
scalar MultiCell.ue12.ipv4.arp arpReplySent:count 0
scalar MultiCell.ue12.ipv4.arp arpReplySent:sum(packetBytes) 0
scalar MultiCell.ue12.ipv4.arp arpRequestSent:count 0
scalar MultiCell.ue12.ipv4.arp arpRequestSent:sum(packetBytes) 0
scalar MultiCell.ue12.udp packetReceived:count 1999
scalar MultiCell.ue12.udp packetReceived:sum(packetBytes) 2014992
scalar MultiCell.ue12.udp packetSent:count 1
scalar MultiCell.ue12.udp packetSent:sum(packetBytes) 9
scalar MultiCell.ue12.udp passedUpPk:count 1999
scalar MultiCell.ue12.udp droppedPkWrongPort:count 0
scalar MultiCell.ue12.udp droppedPkBadChecksum:count 0
scalar MultiCell.ue12.app[0] packetReceived:count 1999
scalar MultiCell.ue12.app[0] packetReceived:sum(packetBytes) 1999000
scalar MultiCell.ue21.lo[0].lo rcvdPkFromHl:count 0
scalar MultiCell.ue21.lo[0].lo rcvdPkFromHl:sum(packetBytes) 0
scalar MultiCell.ue21.lo[0].lo passedUpPk:count 0
scalar MultiCell.ue21.lo[0].lo passedUpPk:sum(packetBytes) 0
scalar MultiCell.ue21.lo[0] packetDropInterfaceDown:count 0
scalar MultiCell.ue21.lo[0] packetDropInterfaceDown:sum(packetBytes) 0
scalar MultiCell.ue21.lo[0] packetDropNoCarrier:count 0
scalar MultiCell.ue21.lo[0] packetDropNoCarrier:sum(packetBytes) 0
scalar MultiCell.ue21.cellularNic.rlcMux rlcCellThroughputD2D:simu5g_rateavg -nan
scalar MultiCell.ue21.cellularNic.rlcMux rlcPduThroughputD2D:simu5g_rateavg -nan
scalar MultiCell.ue21.cellularNic.rlcMux rlcPduDelayD2D:mean -nan
scalar MultiCell.ue21.cellularNic.rlcMux rlcThroughputD2D:simu5g_rateavg -nan
scalar MultiCell.ue21.cellularNic.rlcMux rlcDelayD2D:mean -nan
scalar MultiCell.ue21.cellularNic.rlcMux rlcCellThroughputUl:simu5g_rateavg -nan
scalar MultiCell.ue21.cellularNic.rlcMux rlcCellThroughputDl:simu5g_rateavg -nan
scalar MultiCell.ue21.cellularNic.rlcMux rlcPduThroughputUl:simu5g_rateavg 0
scalar MultiCell.ue21.cellularNic.rlcMux rlcPduThroughputDl:simu5g_rateavg 0
scalar MultiCell.ue21.cellularNic.rlcMux rlcPduDelayUl:mean 0.0040000000000000001
scalar MultiCell.ue21.cellularNic.rlcMux rlcPduDelayDl:mean 0.0040000000000003149
scalar MultiCell.ue21.cellularNic.rlcMux rlcThroughputUl:simu5g_rateavg 3333.3333333333335
scalar MultiCell.ue21.cellularNic.rlcMux rlcThroughputDl:simu5g_rateavg 102600.99131999891
scalar MultiCell.ue21.cellularNic.rlcMux rlcDelayUl:mean 0.0089999999999999993
scalar MultiCell.ue21.cellularNic.rlcMux rlcDelayDl:mean 0.0083922695987993564
scalar MultiCell.ue21.cellularNic.rlcMux sentPacketToLowerLayer:count 2
scalar MultiCell.ue21.cellularNic.rlcMux sentPacketToLowerLayer:sum(packetBytes) 62
scalar MultiCell.ue21.cellularNic.rlcMux receivedPacketFromLowerLayer:count 6524
scalar MultiCell.ue21.cellularNic.rlcMux receivedPacketFromLowerLayer:sum(packetBytes) 2070019
scalar MultiCell.ue21.cellularNic.mac harqTxAttemptsUl:mean 1
scalar MultiCell.ue21.cellularNic.mac harqTxAttemptsDl:mean 1
scalar MultiCell.ue21.cellularNic.mac harqErrorRate_4th_Ul:mean -nan
scalar MultiCell.ue21.cellularNic.mac harqErrorRate_4th_Dl:mean -nan
scalar MultiCell.ue21.cellularNic.mac harqErrorRate_3rd_Ul:mean -nan
scalar MultiCell.ue21.cellularNic.mac harqErrorRate_3rd_Dl:mean -nan
scalar MultiCell.ue21.cellularNic.mac harqErrorRate_2nd_Ul:mean -nan
scalar MultiCell.ue21.cellularNic.mac harqErrorRate_2nd_Dl:mean -nan
scalar MultiCell.ue21.cellularNic.mac harqErrorRate_1st_Ul:mean 0
scalar MultiCell.ue21.cellularNic.mac harqErrorRate_1st_Dl:mean 0
scalar MultiCell.ue21.cellularNic.mac harqErrorRateUl:mean 0
scalar MultiCell.ue21.cellularNic.mac harqErrorRateDl:mean 0
scalar MultiCell.ue21.cellularNic.mac macCellPacketLossUl:mean -nan
scalar MultiCell.ue21.cellularNic.mac macCellPacketLossDl:mean -nan
scalar MultiCell.ue21.cellularNic.mac macPacketLossUl:mean 0
scalar MultiCell.ue21.cellularNic.mac macPacketLossDl:mean 0
scalar MultiCell.ue21.cellularNic.mac macThroughputUl:simu5g_rateavg 3777.7777777777783
scalar MultiCell.ue21.cellularNic.mac macThroughputDl:simu5g_rateavg 103784.33152778521
scalar MultiCell.ue21.cellularNic.mac macDelayUl:mean 0.0040000000000000001
scalar MultiCell.ue21.cellularNic.mac macDelayDl:mean 0.0040000000000003149
scalar MultiCell.ue21.cellularNic.mac macCellThroughputUl:simu5g_rateavg -nan
scalar MultiCell.ue21.cellularNic.mac macCellThroughputDl:simu5g_rateavg -nan
scalar MultiCell.ue21.cellularNic.mac sentPacketToLowerLayer:count 6526
scalar MultiCell.ue21.cellularNic.mac sentPacketToLowerLayer:sum(packetBytes) 6559
scalar MultiCell.ue21.cellularNic.mac sentPacketToUpperLayer:count 6525
scalar MultiCell.ue21.cellularNic.mac sentPacketToUpperLayer:sum(packetBytes) 2070020
scalar MultiCell.ue21.cellularNic.mac receivedPacketFromLowerLayer:count 6527
scalar MultiCell.ue21.cellularNic.mac receivedPacketFromLowerLayer:sum(packetBytes) 2083070
scalar MultiCell.ue21.cellularNic.mac receivedPacketFromUpperLayer:count 2
scalar MultiCell.ue21.cellularNic.mac receivedPacketFromUpperLayer:sum(packetBytes) 62
scalar MultiCell.ue21.cellularNic.mac macBufferOverFlowD2D:mean -nan
scalar MultiCell.ue21.cellularNic.mac macBufferOverFlowUl:mean -nan
scalar MultiCell.ue21.cellularNic.mac macBufferOverFlowDl:mean -nan
scalar MultiCell.ue21.cellularNic.phy distance:mean -nan
scalar MultiCell.ue21.cellularNic.phy averageCqiUl:mean 13
scalar MultiCell.ue21.cellularNic.phy averageCqiUl:count 1
scalar MultiCell.ue21.cellularNic.phy averageCqiDl:mean 14
scalar MultiCell.ue21.cellularNic.phy averageCqiDl:count 6524
scalar MultiCell.ue21.cellularNic.channelModel[0] measuredSinrUl:mean 32.659271629123246
scalar MultiCell.ue21.cellularNic.channelModel[0] measuredSinrDl:mean 36.299876528628857
scalar MultiCell.ue21.cellularNic.channelModel[0] rcvdSinrD2D:mean -nan
scalar MultiCell.ue21.cellularNic.channelModel[0] rcvdSinrUl:mean 38.637690647428144
scalar MultiCell.ue21.cellularNic.channelModel[0] rcvdSinrDl:mean 37.882711797321917
scalar MultiCell.ue21.cellularNic packetDropInterfaceDown:count 0
scalar MultiCell.ue21.cellularNic packetDropInterfaceDown:sum(packetBytes) 0
scalar MultiCell.ue21.cellularNic packetDropNoCarrier:count 0
scalar MultiCell.ue21.cellularNic packetDropNoCarrier:sum(packetBytes) 0
scalar MultiCell.ue21.encap pauseSent:count 0
scalar MultiCell.ue21.encap pauseSent:sum 0
scalar MultiCell.ue21.encap decapPk:count 0
scalar MultiCell.ue21.encap decapPk:sum(packetBytes) 0
scalar MultiCell.ue21.encap encapPk:count 0
scalar MultiCell.ue21.encap encapPk:sum(packetBytes) 0
scalar MultiCell.ue21.ipv4.ip packetDropAddressResolutionFailed:count 0
scalar MultiCell.ue21.ipv4.ip packetDropAddressResolutionFailed:sum(packetBytes) 0
scalar MultiCell.ue21.ipv4.ip packetDropHopLimitReached:count 0
scalar MultiCell.ue21.ipv4.ip packetDropHopLimitReached:sum(packetBytes) 0
scalar MultiCell.ue21.ipv4.ip packetDropForwardingDisabled:count 0
scalar MultiCell.ue21.ipv4.ip packetDropForwardingDisabled:sum(packetBytes) 0
scalar MultiCell.ue21.ipv4.ip packetDropNoInterfaceFound:count 0
scalar MultiCell.ue21.ipv4.ip packetDropNoInterfaceFound:sum(packetBytes) 0
scalar MultiCell.ue21.ipv4.ip packetDropNoRouteFound:count 0
scalar MultiCell.ue21.ipv4.ip packetDropNoRouteFound:sum(packetBytes) 0
scalar MultiCell.ue21.ipv4.ip packetDropUndefined:count 0
scalar MultiCell.ue21.ipv4.ip packetDropUndefined:sum(packetBytes) 0
scalar MultiCell.ue21.ipv4.arp arpResolutionFailed:count 0
scalar MultiCell.ue21.ipv4.arp arpResolutionCompleted:count 0
scalar MultiCell.ue21.ipv4.arp arpResolutionInitiated:count 0
scalar MultiCell.ue21.ipv4.arp arpReplySent:count 0
scalar MultiCell.ue21.ipv4.arp arpReplySent:sum(packetBytes) 0
scalar MultiCell.ue21.ipv4.arp arpRequestSent:count 0
scalar MultiCell.ue21.ipv4.arp arpRequestSent:sum(packetBytes) 0
scalar MultiCell.ue21.udp packetReceived:count 1999
scalar MultiCell.ue21.udp packetReceived:sum(packetBytes) 2014992
scalar MultiCell.ue21.udp packetSent:count 1
scalar MultiCell.ue21.udp packetSent:sum(packetBytes) 9
scalar MultiCell.ue21.udp passedUpPk:count 1999
scalar MultiCell.ue21.udp droppedPkWrongPort:count 0
scalar MultiCell.ue21.udp droppedPkBadChecksum:count 0
scalar MultiCell.ue21.app[0] packetReceived:count 1999
scalar MultiCell.ue21.app[0] packetReceived:sum(packetBytes) 1999000
scalar MultiCell.ue22.lo[0].lo rcvdPkFromHl:count 0
scalar MultiCell.ue22.lo[0].lo rcvdPkFromHl:sum(packetBytes) 0
scalar MultiCell.ue22.lo[0].lo passedUpPk:count 0
scalar MultiCell.ue22.lo[0].lo passedUpPk:sum(packetBytes) 0
scalar MultiCell.ue22.lo[0] packetDropInterfaceDown:count 0
scalar MultiCell.ue22.lo[0] packetDropInterfaceDown:sum(packetBytes) 0
scalar MultiCell.ue22.lo[0] packetDropNoCarrier:count 0
scalar MultiCell.ue22.lo[0] packetDropNoCarrier:sum(packetBytes) 0
scalar MultiCell.ue22.cellularNic.rlcMux rlcCellThroughputD2D:simu5g_rateavg -nan
scalar MultiCell.ue22.cellularNic.rlcMux rlcPduThroughputD2D:simu5g_rateavg -nan
scalar MultiCell.ue22.cellularNic.rlcMux rlcPduDelayD2D:mean -nan
scalar MultiCell.ue22.cellularNic.rlcMux rlcThroughputD2D:simu5g_rateavg -nan
scalar MultiCell.ue22.cellularNic.rlcMux rlcDelayD2D:mean -nan
scalar MultiCell.ue22.cellularNic.rlcMux rlcCellThroughputUl:simu5g_rateavg -nan
scalar MultiCell.ue22.cellularNic.rlcMux rlcCellThroughputDl:simu5g_rateavg -nan
scalar MultiCell.ue22.cellularNic.rlcMux rlcPduThroughputUl:simu5g_rateavg 0
scalar MultiCell.ue22.cellularNic.rlcMux rlcPduThroughputDl:simu5g_rateavg 0
scalar MultiCell.ue22.cellularNic.rlcMux rlcPduDelayUl:mean 0.0040000000000000001
scalar MultiCell.ue22.cellularNic.rlcMux rlcPduDelayDl:mean 0.0040000000000003939
scalar MultiCell.ue22.cellularNic.rlcMux rlcThroughputUl:simu5g_rateavg 3333.3333333333335
scalar MultiCell.ue22.cellularNic.rlcMux rlcThroughputDl:simu5g_rateavg 87482.405257114937
scalar MultiCell.ue22.cellularNic.rlcMux rlcDelayUl:mean 0.0089999999999999993
scalar MultiCell.ue22.cellularNic.rlcMux rlcDelayDl:mean 0.0067264712975608444
scalar MultiCell.ue22.cellularNic.rlcMux sentPacketToLowerLayer:count 2
scalar MultiCell.ue22.cellularNic.rlcMux sentPacketToLowerLayer:sum(packetBytes) 62
scalar MultiCell.ue22.cellularNic.rlcMux receivedPacketFromLowerLayer:count 7072
scalar MultiCell.ue22.cellularNic.rlcMux receivedPacketFromLowerLayer:sum(packetBytes) 2114240
scalar MultiCell.ue22.cellularNic.mac harqTxAttemptsUl:mean 1
scalar MultiCell.ue22.cellularNic.mac harqTxAttemptsDl:mean 1
scalar MultiCell.ue22.cellularNic.mac harqErrorRate_4th_Ul:mean -nan
scalar MultiCell.ue22.cellularNic.mac harqErrorRate_4th_Dl:mean -nan
scalar MultiCell.ue22.cellularNic.mac harqErrorRate_3rd_Ul:mean -nan
scalar MultiCell.ue22.cellularNic.mac harqErrorRate_3rd_Dl:mean -nan
scalar MultiCell.ue22.cellularNic.mac harqErrorRate_2nd_Ul:mean -nan
scalar MultiCell.ue22.cellularNic.mac harqErrorRate_2nd_Dl:mean -nan
scalar MultiCell.ue22.cellularNic.mac harqErrorRate_1st_Ul:mean 0
scalar MultiCell.ue22.cellularNic.mac harqErrorRate_1st_Dl:mean 0
scalar MultiCell.ue22.cellularNic.mac harqErrorRateUl:mean 0
scalar MultiCell.ue22.cellularNic.mac harqErrorRateDl:mean 0
scalar MultiCell.ue22.cellularNic.mac macCellPacketLossUl:mean -nan
scalar MultiCell.ue22.cellularNic.mac macCellPacketLossDl:mean -nan
scalar MultiCell.ue22.cellularNic.mac macPacketLossUl:mean 0
scalar MultiCell.ue22.cellularNic.mac macPacketLossDl:mean 0
scalar MultiCell.ue22.cellularNic.mac macThroughputUl:simu5g_rateavg 3777.7777777777783
scalar MultiCell.ue22.cellularNic.mac macThroughputDl:simu5g_rateavg 105205.77322068888
scalar MultiCell.ue22.cellularNic.mac macDelayUl:mean 0.0040000000000000001
scalar MultiCell.ue22.cellularNic.mac macDelayDl:mean 0.0040000000000003939
scalar MultiCell.ue22.cellularNic.mac macCellThroughputUl:simu5g_rateavg -nan
scalar MultiCell.ue22.cellularNic.mac macCellThroughputDl:simu5g_rateavg -nan
scalar MultiCell.ue22.cellularNic.mac sentPacketToLowerLayer:count 7074
scalar MultiCell.ue22.cellularNic.mac sentPacketToLowerLayer:sum(packetBytes) 7107
scalar MultiCell.ue22.cellularNic.mac sentPacketToUpperLayer:count 7073
scalar MultiCell.ue22.cellularNic.mac sentPacketToUpperLayer:sum(packetBytes) 2114241
scalar MultiCell.ue22.cellularNic.mac receivedPacketFromLowerLayer:count 7075
scalar MultiCell.ue22.cellularNic.mac receivedPacketFromLowerLayer:sum(packetBytes) 2128387
scalar MultiCell.ue22.cellularNic.mac receivedPacketFromUpperLayer:count 2
scalar MultiCell.ue22.cellularNic.mac receivedPacketFromUpperLayer:sum(packetBytes) 62
scalar MultiCell.ue22.cellularNic.mac macBufferOverFlowD2D:mean -nan
scalar MultiCell.ue22.cellularNic.mac macBufferOverFlowUl:mean -nan
scalar MultiCell.ue22.cellularNic.mac macBufferOverFlowDl:mean -nan
scalar MultiCell.ue22.cellularNic.phy distance:mean -nan
scalar MultiCell.ue22.cellularNic.phy averageCqiUl:mean 14
scalar MultiCell.ue22.cellularNic.phy averageCqiUl:count 1
scalar MultiCell.ue22.cellularNic.phy averageCqiDl:mean 15
scalar MultiCell.ue22.cellularNic.phy averageCqiDl:count 7072
scalar MultiCell.ue22.cellularNic.channelModel[0] measuredSinrUl:mean 37.187641513726717
scalar MultiCell.ue22.cellularNic.channelModel[0] measuredSinrDl:mean 48.913108469217669
scalar MultiCell.ue22.cellularNic.channelModel[0] rcvdSinrD2D:mean -nan
scalar MultiCell.ue22.cellularNic.channelModel[0] rcvdSinrUl:mean 38.841853514687052
scalar MultiCell.ue22.cellularNic.channelModel[0] rcvdSinrDl:mean 50.498081272399183
scalar MultiCell.ue22.cellularNic packetDropInterfaceDown:count 0
scalar MultiCell.ue22.cellularNic packetDropInterfaceDown:sum(packetBytes) 0
scalar MultiCell.ue22.cellularNic packetDropNoCarrier:count 0
scalar MultiCell.ue22.cellularNic packetDropNoCarrier:sum(packetBytes) 0
scalar MultiCell.ue22.encap pauseSent:count 0
scalar MultiCell.ue22.encap pauseSent:sum 0
scalar MultiCell.ue22.encap decapPk:count 0
scalar MultiCell.ue22.encap decapPk:sum(packetBytes) 0
scalar MultiCell.ue22.encap encapPk:count 0
scalar MultiCell.ue22.encap encapPk:sum(packetBytes) 0
scalar MultiCell.ue22.ipv4.ip packetDropAddressResolutionFailed:count 0
scalar MultiCell.ue22.ipv4.ip packetDropAddressResolutionFailed:sum(packetBytes) 0
scalar MultiCell.ue22.ipv4.ip packetDropHopLimitReached:count 0
scalar MultiCell.ue22.ipv4.ip packetDropHopLimitReached:sum(packetBytes) 0
scalar MultiCell.ue22.ipv4.ip packetDropForwardingDisabled:count 0
scalar MultiCell.ue22.ipv4.ip packetDropForwardingDisabled:sum(packetBytes) 0
scalar MultiCell.ue22.ipv4.ip packetDropNoInterfaceFound:count 0
scalar MultiCell.ue22.ipv4.ip packetDropNoInterfaceFound:sum(packetBytes) 0
scalar MultiCell.ue22.ipv4.ip packetDropNoRouteFound:count 0
scalar MultiCell.ue22.ipv4.ip packetDropNoRouteFound:sum(packetBytes) 0
scalar MultiCell.ue22.ipv4.ip packetDropUndefined:count 0
scalar MultiCell.ue22.ipv4.ip packetDropUndefined:sum(packetBytes) 0
scalar MultiCell.ue22.ipv4.arp arpResolutionFailed:count 0
scalar MultiCell.ue22.ipv4.arp arpResolutionCompleted:count 0
scalar MultiCell.ue22.ipv4.arp arpResolutionInitiated:count 0
scalar MultiCell.ue22.ipv4.arp arpReplySent:count 0
scalar MultiCell.ue22.ipv4.arp arpReplySent:sum(packetBytes) 0
scalar MultiCell.ue22.ipv4.arp arpRequestSent:count 0
scalar MultiCell.ue22.ipv4.arp arpRequestSent:sum(packetBytes) 0
scalar MultiCell.ue22.udp packetReceived:count 2624
scalar MultiCell.ue22.udp packetReceived:sum(packetBytes) 2044992
scalar MultiCell.ue22.udp packetSent:count 1
scalar MultiCell.ue22.udp packetSent:sum(packetBytes) 9
scalar MultiCell.ue22.udp passedUpPk:count 2624
scalar MultiCell.ue22.udp droppedPkWrongPort:count 0
scalar MultiCell.ue22.udp droppedPkBadChecksum:count 0
scalar MultiCell.ue22.app[0] packetReceived:count 1999
scalar MultiCell.ue22.app[0] packetReceived:sum(packetBytes) 1999000
scalar MultiCell.ue22.app[1] voipReceivedThroughput:simu5g_rateavg 789.1563985868662
scalar MultiCell.ue22.app[1] voipPlayoutLoss:mean 0.022058823529411766
scalar MultiCell.ue22.app[1] voipJitter:mean 0.001
scalar MultiCell.ue22.app[1] voipTaildropLoss:mean 0
scalar MultiCell.ue22.app[1] voipMos:mean 4.0907535198284517
scalar MultiCell.ue22.app[1] voipFrameDelay:mean 0.013670889701614425
scalar MultiCell.ue22.app[1] voipFrameLoss:mean 0
scalar MultiCell.ue22.app[1] voipPlayoutDelay:mean 0.000125
scalar MultiCell.server.ppp[0].queue queueingTime:histogram:count 7999
scalar MultiCell.server.ppp[0].queue queueingTime:histogram:sumweights 7999
scalar MultiCell.server.ppp[0].queue queueingTime:histogram:mean 5.844730591323873e-07
scalar MultiCell.server.ppp[0].queue queueingTime:histogram:stddev 6.4880442433625153e-07
scalar MultiCell.server.ppp[0].queue queueingTime:histogram:min 0
scalar MultiCell.server.ppp[0].queue queueingTime:histogram:max 1.5672e-06
scalar MultiCell.server.ppp[0].queue queueingTime:histogram:numbins 98
scalar MultiCell.server.ppp[0].queue queueingTime:histogram:rangemin 0
scalar MultiCell.server.ppp[0].queue queueingTime:histogram:rangemax 1.9600000000000003e-06
scalar MultiCell.server.ppp[0].queue queueingTime:histogram:underflows 0
scalar MultiCell.server.ppp[0].queue queueingTime:histogram:overflows 0
scalar MultiCell.server.ppp[0].queue outgoingPacketLengths:histogram:count 7999
scalar MultiCell.server.ppp[0].queue outgoingPacketLengths:histogram:sumweights 7999
scalar MultiCell.server.ppp[0].queue outgoingPacketLengths:histogram:mean 8224
scalar MultiCell.server.ppp[0].queue outgoingPacketLengths:histogram:stddev 0
scalar MultiCell.server.ppp[0].queue outgoingPacketLengths:histogram:min 8224
scalar MultiCell.server.ppp[0].queue outgoingPacketLengths:histogram:max 8224
scalar MultiCell.server.ppp[0].queue outgoingPacketLengths:histogram:numbins 2
scalar MultiCell.server.ppp[0].queue outgoingPacketLengths:histogram:rangemin 8223
scalar MultiCell.server.ppp[0].queue outgoingPacketLengths:histogram:rangemax 8225
scalar MultiCell.server.ppp[0].queue outgoingPacketLengths:histogram:underflows 0
scalar MultiCell.server.ppp[0].queue outgoingPacketLengths:histogram:overflows 0
scalar MultiCell.server.ppp[0].queue flowQueueingTime:histogram:count 0
scalar MultiCell.server.ppp[0].queue flowQueueingTime:histogram:sumweights 0
scalar MultiCell.server.ppp[0].queue flowQueueingTime:histogram:mean -nan
scalar MultiCell.server.ppp[0].queue flowQueueingTime:histogram:stddev nan
scalar MultiCell.server.ppp[0].queue flowQueueingTime:histogram:min nan
scalar MultiCell.server.ppp[0].queue flowQueueingTime:histogram:max nan
scalar MultiCell.server.ppp[0].queue flowQueueingTime:histogram:numbins 1
scalar MultiCell.server.ppp[0].queue flowQueueingTime:histogram:rangemin 0
scalar MultiCell.server.ppp[0].queue flowQueueingTime:histogram:rangemax 1
scalar MultiCell.server.ppp[0].queue flowQueueingTime:histogram:underflows 0
scalar MultiCell.server.ppp[0].queue flowQueueingTime:histogram:overflows 0
scalar MultiCell.server.ppp[0].queue incomingPacketLengths:histogram:count 7999
scalar MultiCell.server.ppp[0].queue incomingPacketLengths:histogram:sumweights 7999
scalar MultiCell.server.ppp[0].queue incomingPacketLengths:histogram:mean 8224
scalar MultiCell.server.ppp[0].queue incomingPacketLengths:histogram:stddev 0
scalar MultiCell.server.ppp[0].queue incomingPacketLengths:histogram:min 8224
scalar MultiCell.server.ppp[0].queue incomingPacketLengths:histogram:max 8224
scalar MultiCell.server.ppp[0].queue incomingPacketLengths:histogram:numbins 2
scalar MultiCell.server.ppp[0].queue incomingPacketLengths:histogram:rangemin 8223
scalar MultiCell.server.ppp[0].queue incomingPacketLengths:histogram:rangemax 8225
scalar MultiCell.server.ppp[0].queue incomingPacketLengths:histogram:underflows 0
scalar MultiCell.server.ppp[0].queue incomingPacketLengths:histogram:overflows 0
scalar MultiCell.pgw.ppp[0].queue queueingTime:histogram:count 3999
scalar MultiCell.pgw.ppp[0].queue queueingTime:histogram:sumweights 3999
scalar MultiCell.pgw.ppp[0].queue queueingTime:histogram:mean 0
scalar MultiCell.pgw.ppp[0].queue queueingTime:histogram:stddev 0
scalar MultiCell.pgw.ppp[0].queue queueingTime:histogram:min 0
scalar MultiCell.pgw.ppp[0].queue queueingTime:histogram:max 0
scalar MultiCell.pgw.ppp[0].queue queueingTime:histogram:numbins 50
scalar MultiCell.pgw.ppp[0].queue queueingTime:histogram:rangemin -0.5
scalar MultiCell.pgw.ppp[0].queue queueingTime:histogram:rangemax 0.5
scalar MultiCell.pgw.ppp[0].queue queueingTime:histogram:underflows 0
scalar MultiCell.pgw.ppp[0].queue queueingTime:histogram:overflows 0
scalar MultiCell.pgw.ppp[0].queue outgoingPacketLengths:histogram:count 3999
scalar MultiCell.pgw.ppp[0].queue outgoingPacketLengths:histogram:sumweights 3999
scalar MultiCell.pgw.ppp[0].queue outgoingPacketLengths:histogram:mean 8512
scalar MultiCell.pgw.ppp[0].queue outgoingPacketLengths:histogram:stddev 0
scalar MultiCell.pgw.ppp[0].queue outgoingPacketLengths:histogram:min 8512
scalar MultiCell.pgw.ppp[0].queue outgoingPacketLengths:histogram:max 8512
scalar MultiCell.pgw.ppp[0].queue outgoingPacketLengths:histogram:numbins 2
scalar MultiCell.pgw.ppp[0].queue outgoingPacketLengths:histogram:rangemin 8511
scalar MultiCell.pgw.ppp[0].queue outgoingPacketLengths:histogram:rangemax 8513
scalar MultiCell.pgw.ppp[0].queue outgoingPacketLengths:histogram:underflows 0
scalar MultiCell.pgw.ppp[0].queue outgoingPacketLengths:histogram:overflows 0
[...]
scalar MultiCell.ue22.cellularNic.phy averageCqiDl:vector:sum 0
scalar MultiCell.ue22.cellularNic.phy averageCqiDl:vector:sumweights 0
scalar MultiCell.ue22.cellularNic.phy averageCqiDl:vector:mean -nan
scalar MultiCell.ue22.cellularNic.phy averageCqiDl:vector:stddev nan
scalar MultiCell.ue22.cellularNic.phy averageCqiDl:vector:min inf
scalar MultiCell.ue22.cellularNic.phy averageCqiDl:vector:max -inf
scalar MultiCell.ue22.cellularNic.phy averageCqiDl:vector:starttime nan
scalar MultiCell.ue22.cellularNic.phy averageCqiDl:vector:endtime nan
scalar MultiCell.ue22.cellularNic.phy averageCqiUl:vector:count 0
scalar MultiCell.ue22.cellularNic.phy averageCqiUl:vector:sum 0
scalar MultiCell.ue22.cellularNic.phy averageCqiUl:vector:sumweights 0
scalar MultiCell.ue22.cellularNic.phy averageCqiUl:vector:mean -nan
scalar MultiCell.ue22.cellularNic.phy averageCqiUl:vector:stddev nan
scalar MultiCell.ue22.cellularNic.phy averageCqiUl:vector:min inf
scalar MultiCell.ue22.cellularNic.phy averageCqiUl:vector:max -inf
scalar MultiCell.ue22.cellularNic.phy averageCqiUl:vector:starttime nan
scalar MultiCell.ue22.cellularNic.phy averageCqiUl:vector:endtime nan
scalar MultiCell.ue22.cellularNic.channelModel[0] rcvdSinrDl:vector:count 0
scalar MultiCell.ue22.cellularNic.channelModel[0] rcvdSinrDl:vector:sum 0
scalar MultiCell.ue22.cellularNic.channelModel[0] rcvdSinrDl:vector:sumweights 0
scalar MultiCell.ue22.cellularNic.channelModel[0] rcvdSinrDl:vector:mean -nan
scalar MultiCell.ue22.cellularNic.channelModel[0] rcvdSinrDl:vector:stddev nan
scalar MultiCell.ue22.cellularNic.channelModel[0] rcvdSinrDl:vector:min inf
scalar MultiCell.ue22.cellularNic.channelModel[0] rcvdSinrDl:vector:max -inf
scalar MultiCell.ue22.cellularNic.channelModel[0] rcvdSinrDl:vector:starttime nan
scalar MultiCell.ue22.cellularNic.channelModel[0] rcvdSinrDl:vector:endtime nan
scalar MultiCell.ue22.cellularNic.channelModel[0] rcvdSinrUl:vector:count 0
scalar MultiCell.ue22.cellularNic.channelModel[0] rcvdSinrUl:vector:sum 0
scalar MultiCell.ue22.cellularNic.channelModel[0] rcvdSinrUl:vector:sumweights 0
scalar MultiCell.ue22.cellularNic.channelModel[0] rcvdSinrUl:vector:mean -nan
scalar MultiCell.ue22.cellularNic.channelModel[0] rcvdSinrUl:vector:stddev nan
scalar MultiCell.ue22.cellularNic.channelModel[0] rcvdSinrUl:vector:min inf
scalar MultiCell.ue22.cellularNic.channelModel[0] rcvdSinrUl:vector:max -inf
scalar MultiCell.ue22.cellularNic.channelModel[0] rcvdSinrUl:vector:starttime nan
scalar MultiCell.ue22.cellularNic.channelModel[0] rcvdSinrUl:vector:endtime nan
scalar MultiCell.ue22.cellularNic.channelModel[0] rcvdSinrD2D:vector:count 0
scalar MultiCell.ue22.cellularNic.channelModel[0] rcvdSinrD2D:vector:sum 0
scalar MultiCell.ue22.cellularNic.channelModel[0] rcvdSinrD2D:vector:sumweights 0
scalar MultiCell.ue22.cellularNic.channelModel[0] rcvdSinrD2D:vector:mean -nan
scalar MultiCell.ue22.cellularNic.channelModel[0] rcvdSinrD2D:vector:stddev nan
scalar MultiCell.ue22.cellularNic.channelModel[0] rcvdSinrD2D:vector:min inf
scalar MultiCell.ue22.cellularNic.channelModel[0] rcvdSinrD2D:vector:max -inf
scalar MultiCell.ue22.cellularNic.channelModel[0] rcvdSinrD2D:vector:starttime nan
scalar MultiCell.ue22.cellularNic.channelModel[0] rcvdSinrD2D:vector:endtime nan
scalar MultiCell.ue22.cellularNic.channelModel[0] measuredSinrDl:vector:count 0
scalar MultiCell.ue22.cellularNic.channelModel[0] measuredSinrDl:vector:sum 0
scalar MultiCell.ue22.cellularNic.channelModel[0] measuredSinrDl:vector:sumweights 0
scalar MultiCell.ue22.cellularNic.channelModel[0] measuredSinrDl:vector:mean -nan
scalar MultiCell.ue22.cellularNic.channelModel[0] measuredSinrDl:vector:stddev nan
scalar MultiCell.ue22.cellularNic.channelModel[0] measuredSinrDl:vector:min inf
scalar MultiCell.ue22.cellularNic.channelModel[0] measuredSinrDl:vector:max -inf
scalar MultiCell.ue22.cellularNic.channelModel[0] measuredSinrDl:vector:starttime nan
scalar MultiCell.ue22.cellularNic.channelModel[0] measuredSinrDl:vector:endtime nan
scalar MultiCell.ue22.cellularNic.channelModel[0] measuredSinrUl:vector:count 0
scalar MultiCell.ue22.cellularNic.channelModel[0] measuredSinrUl:vector:sum 0
scalar MultiCell.ue22.cellularNic.channelModel[0] measuredSinrUl:vector:sumweights 0
scalar MultiCell.ue22.cellularNic.channelModel[0] measuredSinrUl:vector:mean -nan
scalar MultiCell.ue22.cellularNic.channelModel[0] measuredSinrUl:vector:stddev nan
scalar MultiCell.ue22.cellularNic.channelModel[0] measuredSinrUl:vector:min inf
scalar MultiCell.ue22.cellularNic.channelModel[0] measuredSinrUl:vector:max -inf
scalar MultiCell.ue22.cellularNic.channelModel[0] measuredSinrUl:vector:starttime nan
scalar MultiCell.ue22.cellularNic.channelModel[0] measuredSinrUl:vector:endtime nan
scalar MultiCell.ue22.cellularNic packetDropInterfaceDown:vector(packetBytes):count 0
scalar MultiCell.ue22.cellularNic packetDropInterfaceDown:vector(packetBytes):sum 0
scalar MultiCell.ue22.cellularNic packetDropInterfaceDown:vector(packetBytes):sumweights 0
scalar MultiCell.ue22.cellularNic packetDropInterfaceDown:vector(packetBytes):mean -nan
scalar MultiCell.ue22.cellularNic packetDropInterfaceDown:vector(packetBytes):stddev nan
scalar MultiCell.ue22.cellularNic packetDropInterfaceDown:vector(packetBytes):min inf
scalar MultiCell.ue22.cellularNic packetDropInterfaceDown:vector(packetBytes):max -inf
scalar MultiCell.ue22.cellularNic packetDropInterfaceDown:vector(packetBytes):starttime nan
scalar MultiCell.ue22.cellularNic packetDropInterfaceDown:vector(packetBytes):endtime nan
scalar MultiCell.ue22.cellularNic packetDropNoCarrier:vector(packetBytes):count 0
scalar MultiCell.ue22.cellularNic packetDropNoCarrier:vector(packetBytes):sum 0
scalar MultiCell.ue22.cellularNic packetDropNoCarrier:vector(packetBytes):sumweights 0
scalar MultiCell.ue22.cellularNic packetDropNoCarrier:vector(packetBytes):mean -nan
scalar MultiCell.ue22.cellularNic packetDropNoCarrier:vector(packetBytes):stddev nan
scalar MultiCell.ue22.cellularNic packetDropNoCarrier:vector(packetBytes):min inf
scalar MultiCell.ue22.cellularNic packetDropNoCarrier:vector(packetBytes):max -inf
scalar MultiCell.ue22.cellularNic packetDropNoCarrier:vector(packetBytes):starttime nan
scalar MultiCell.ue22.cellularNic packetDropNoCarrier:vector(packetBytes):endtime nan
scalar MultiCell.ue22.encap encapPk:vector(packetBytes):count 0
scalar MultiCell.ue22.encap encapPk:vector(packetBytes):sum 0
scalar MultiCell.ue22.encap encapPk:vector(packetBytes):sumweights 0
scalar MultiCell.ue22.encap encapPk:vector(packetBytes):mean -nan
scalar MultiCell.ue22.encap encapPk:vector(packetBytes):stddev nan
scalar MultiCell.ue22.encap encapPk:vector(packetBytes):min inf
scalar MultiCell.ue22.encap encapPk:vector(packetBytes):max -inf
scalar MultiCell.ue22.encap encapPk:vector(packetBytes):starttime nan
scalar MultiCell.ue22.encap encapPk:vector(packetBytes):endtime nan
scalar MultiCell.ue22.encap decapPk:vector(packetBytes):count 0
scalar MultiCell.ue22.encap decapPk:vector(packetBytes):sum 0
scalar MultiCell.ue22.encap decapPk:vector(packetBytes):sumweights 0
scalar MultiCell.ue22.encap decapPk:vector(packetBytes):mean -nan
scalar MultiCell.ue22.encap decapPk:vector(packetBytes):stddev nan
scalar MultiCell.ue22.encap decapPk:vector(packetBytes):min inf
scalar MultiCell.ue22.encap decapPk:vector(packetBytes):max -inf
scalar MultiCell.ue22.encap decapPk:vector(packetBytes):starttime nan
scalar MultiCell.ue22.encap decapPk:vector(packetBytes):endtime nan
scalar MultiCell.ue22.encap pauseSent:vector:count 0
scalar MultiCell.ue22.encap pauseSent:vector:sum 0
scalar MultiCell.ue22.encap pauseSent:vector:sumweights 0
scalar MultiCell.ue22.encap pauseSent:vector:mean -nan
scalar MultiCell.ue22.encap pauseSent:vector:stddev nan
scalar MultiCell.ue22.encap pauseSent:vector:min inf
scalar MultiCell.ue22.encap pauseSent:vector:max -inf
scalar MultiCell.ue22.encap pauseSent:vector:starttime nan
scalar MultiCell.ue22.encap pauseSent:vector:endtime nan
scalar MultiCell.ue22.ipv4.ip packetDropAddressResolutionFailed:vector(packetBytes):count 0
scalar MultiCell.ue22.ipv4.ip packetDropAddressResolutionFailed:vector(packetBytes):sum 0
scalar MultiCell.ue22.ipv4.ip packetDropAddressResolutionFailed:vector(packetBytes):sumweights 0
scalar MultiCell.ue22.ipv4.ip packetDropAddressResolutionFailed:vector(packetBytes):mean -nan
scalar MultiCell.ue22.ipv4.ip packetDropAddressResolutionFailed:vector(packetBytes):stddev nan
scalar MultiCell.ue22.ipv4.ip packetDropAddressResolutionFailed:vector(packetBytes):min inf
scalar MultiCell.ue22.ipv4.ip packetDropAddressResolutionFailed:vector(packetBytes):max -inf
scalar MultiCell.ue22.ipv4.ip packetDropAddressResolutionFailed:vector(packetBytes):starttime nan
scalar MultiCell.ue22.ipv4.ip packetDropAddressResolutionFailed:vector(packetBytes):endtime nan
scalar MultiCell.ue22.ipv4.ip packetDropHopLimitReached:vector(packetBytes):count 0
scalar MultiCell.ue22.ipv4.ip packetDropHopLimitReached:vector(packetBytes):sum 0
scalar MultiCell.ue22.ipv4.ip packetDropHopLimitReached:vector(packetBytes):sumweights 0
scalar MultiCell.ue22.ipv4.ip packetDropHopLimitReached:vector(packetBytes):mean -nan
scalar MultiCell.ue22.ipv4.ip packetDropHopLimitReached:vector(packetBytes):stddev nan
scalar MultiCell.ue22.ipv4.ip packetDropHopLimitReached:vector(packetBytes):min inf
scalar MultiCell.ue22.ipv4.ip packetDropHopLimitReached:vector(packetBytes):max -inf
scalar MultiCell.ue22.ipv4.ip packetDropHopLimitReached:vector(packetBytes):starttime nan
scalar MultiCell.ue22.ipv4.ip packetDropHopLimitReached:vector(packetBytes):endtime nan
scalar MultiCell.ue22.ipv4.ip packetDropForwardingDisabled:vector(packetBytes):count 0
scalar MultiCell.ue22.ipv4.ip packetDropForwardingDisabled:vector(packetBytes):sum 0
scalar MultiCell.ue22.ipv4.ip packetDropForwardingDisabled:vector(packetBytes):sumweights 0
scalar MultiCell.ue22.ipv4.ip packetDropForwardingDisabled:vector(packetBytes):mean -nan
scalar MultiCell.ue22.ipv4.ip packetDropForwardingDisabled:vector(packetBytes):stddev nan
scalar MultiCell.ue22.ipv4.ip packetDropForwardingDisabled:vector(packetBytes):min inf
scalar MultiCell.ue22.ipv4.ip packetDropForwardingDisabled:vector(packetBytes):max -inf
scalar MultiCell.ue22.ipv4.ip packetDropForwardingDisabled:vector(packetBytes):starttime nan
scalar MultiCell.ue22.ipv4.ip packetDropForwardingDisabled:vector(packetBytes):endtime nan
scalar MultiCell.ue22.ipv4.ip packetDropNoInterfaceFound:vector(packetBytes):count 0
scalar MultiCell.ue22.ipv4.ip packetDropNoInterfaceFound:vector(packetBytes):sum 0
scalar MultiCell.ue22.ipv4.ip packetDropNoInterfaceFound:vector(packetBytes):sumweights 0
scalar MultiCell.ue22.ipv4.ip packetDropNoInterfaceFound:vector(packetBytes):mean -nan
scalar MultiCell.ue22.ipv4.ip packetDropNoInterfaceFound:vector(packetBytes):stddev nan
scalar MultiCell.ue22.ipv4.ip packetDropNoInterfaceFound:vector(packetBytes):min inf
scalar MultiCell.ue22.ipv4.ip packetDropNoInterfaceFound:vector(packetBytes):max -inf
scalar MultiCell.ue22.ipv4.ip packetDropNoInterfaceFound:vector(packetBytes):starttime nan
scalar MultiCell.ue22.ipv4.ip packetDropNoInterfaceFound:vector(packetBytes):endtime nan
scalar MultiCell.ue22.ipv4.ip packetDropNoRouteFound:vector(packetBytes):count 0
scalar MultiCell.ue22.ipv4.ip packetDropNoRouteFound:vector(packetBytes):sum 0
scalar MultiCell.ue22.ipv4.ip packetDropNoRouteFound:vector(packetBytes):sumweights 0
scalar MultiCell.ue22.ipv4.ip packetDropNoRouteFound:vector(packetBytes):mean -nan
scalar MultiCell.ue22.ipv4.ip packetDropNoRouteFound:vector(packetBytes):stddev nan
scalar MultiCell.ue22.ipv4.ip packetDropNoRouteFound:vector(packetBytes):min inf
scalar MultiCell.ue22.ipv4.ip packetDropNoRouteFound:vector(packetBytes):max -inf
scalar MultiCell.ue22.ipv4.ip packetDropNoRouteFound:vector(packetBytes):starttime nan
scalar MultiCell.ue22.ipv4.ip packetDropNoRouteFound:vector(packetBytes):endtime nan
scalar MultiCell.ue22.ipv4.ip packetDropUndefined:vector(packetBytes):count 0
scalar MultiCell.ue22.ipv4.ip packetDropUndefined:vector(packetBytes):sum 0
scalar MultiCell.ue22.ipv4.ip packetDropUndefined:vector(packetBytes):sumweights 0
scalar MultiCell.ue22.ipv4.ip packetDropUndefined:vector(packetBytes):mean -nan
scalar MultiCell.ue22.ipv4.ip packetDropUndefined:vector(packetBytes):stddev nan
scalar MultiCell.ue22.ipv4.ip packetDropUndefined:vector(packetBytes):min inf
scalar MultiCell.ue22.ipv4.ip packetDropUndefined:vector(packetBytes):max -inf
scalar MultiCell.ue22.ipv4.ip packetDropUndefined:vector(packetBytes):starttime nan
scalar MultiCell.ue22.ipv4.ip packetDropUndefined:vector(packetBytes):endtime nan
scalar MultiCell.ue22.ipv4.arp arpRequestSent:vector(packetBytes):count 0
scalar MultiCell.ue22.ipv4.arp arpRequestSent:vector(packetBytes):sum 0
scalar MultiCell.ue22.ipv4.arp arpRequestSent:vector(packetBytes):sumweights 0
scalar MultiCell.ue22.ipv4.arp arpRequestSent:vector(packetBytes):mean -nan
scalar MultiCell.ue22.ipv4.arp arpRequestSent:vector(packetBytes):stddev nan
scalar MultiCell.ue22.ipv4.arp arpRequestSent:vector(packetBytes):min inf
scalar MultiCell.ue22.ipv4.arp arpRequestSent:vector(packetBytes):max -inf
scalar MultiCell.ue22.ipv4.arp arpRequestSent:vector(packetBytes):starttime nan
scalar MultiCell.ue22.ipv4.arp arpRequestSent:vector(packetBytes):endtime nan
scalar MultiCell.ue22.ipv4.arp arpReplySent:vector(packetBytes):count 0
scalar MultiCell.ue22.ipv4.arp arpReplySent:vector(packetBytes):sum 0
scalar MultiCell.ue22.ipv4.arp arpReplySent:vector(packetBytes):sumweights 0
scalar MultiCell.ue22.ipv4.arp arpReplySent:vector(packetBytes):mean -nan
scalar MultiCell.ue22.ipv4.arp arpReplySent:vector(packetBytes):stddev nan
scalar MultiCell.ue22.ipv4.arp arpReplySent:vector(packetBytes):min inf
scalar MultiCell.ue22.ipv4.arp arpReplySent:vector(packetBytes):max -inf
scalar MultiCell.ue22.ipv4.arp arpReplySent:vector(packetBytes):starttime nan
scalar MultiCell.ue22.ipv4.arp arpReplySent:vector(packetBytes):endtime nan
scalar MultiCell.ue22.udp packetSent:vector(packetBytes):count 0
scalar MultiCell.ue22.udp packetSent:vector(packetBytes):sum 0
scalar MultiCell.ue22.udp packetSent:vector(packetBytes):sumweights 0
scalar MultiCell.ue22.udp packetSent:vector(packetBytes):mean -nan
scalar MultiCell.ue22.udp packetSent:vector(packetBytes):stddev nan
scalar MultiCell.ue22.udp packetSent:vector(packetBytes):min inf
scalar MultiCell.ue22.udp packetSent:vector(packetBytes):max -inf
scalar MultiCell.ue22.udp packetSent:vector(packetBytes):starttime nan
scalar MultiCell.ue22.udp packetSent:vector(packetBytes):endtime nan
scalar MultiCell.ue22.udp packetReceived:vector(packetBytes):count 0
scalar MultiCell.ue22.udp packetReceived:vector(packetBytes):sum 0
scalar MultiCell.ue22.udp packetReceived:vector(packetBytes):sumweights 0
scalar MultiCell.ue22.udp packetReceived:vector(packetBytes):mean -nan
scalar MultiCell.ue22.udp packetReceived:vector(packetBytes):stddev nan
scalar MultiCell.ue22.udp packetReceived:vector(packetBytes):min inf
scalar MultiCell.ue22.udp packetReceived:vector(packetBytes):max -inf
scalar MultiCell.ue22.udp packetReceived:vector(packetBytes):starttime nan
scalar MultiCell.ue22.udp packetReceived:vector(packetBytes):endtime nan
scalar MultiCell.ue22.udp passedUpPk:vector(count):count 0
scalar MultiCell.ue22.udp passedUpPk:vector(count):sum 0
scalar MultiCell.ue22.udp passedUpPk:vector(count):sumweights 0
scalar MultiCell.ue22.udp passedUpPk:vector(count):mean -nan
scalar MultiCell.ue22.udp passedUpPk:vector(count):stddev nan
scalar MultiCell.ue22.udp passedUpPk:vector(count):min inf
scalar MultiCell.ue22.udp passedUpPk:vector(count):max -inf
scalar MultiCell.ue22.udp passedUpPk:vector(count):starttime nan
scalar MultiCell.ue22.udp passedUpPk:vector(count):endtime nan
scalar MultiCell.ue22.udp droppedPkWrongPort:vector(count):count 0
scalar MultiCell.ue22.udp droppedPkWrongPort:vector(count):sum 0
scalar MultiCell.ue22.udp droppedPkWrongPort:vector(count):sumweights 0
scalar MultiCell.ue22.udp droppedPkWrongPort:vector(count):mean -nan
scalar MultiCell.ue22.udp droppedPkWrongPort:vector(count):stddev nan
scalar MultiCell.ue22.udp droppedPkWrongPort:vector(count):min inf
scalar MultiCell.ue22.udp droppedPkWrongPort:vector(count):max -inf
scalar MultiCell.ue22.udp droppedPkWrongPort:vector(count):starttime nan
scalar MultiCell.ue22.udp droppedPkWrongPort:vector(count):endtime nan
scalar MultiCell.ue22.udp droppedPkBadChecksum:vector(count):count 0
scalar MultiCell.ue22.udp droppedPkBadChecksum:vector(count):sum 0
scalar MultiCell.ue22.udp droppedPkBadChecksum:vector(count):sumweights 0
scalar MultiCell.ue22.udp droppedPkBadChecksum:vector(count):mean -nan
scalar MultiCell.ue22.udp droppedPkBadChecksum:vector(count):stddev nan
scalar MultiCell.ue22.udp droppedPkBadChecksum:vector(count):min inf
scalar MultiCell.ue22.udp droppedPkBadChecksum:vector(count):max -inf
scalar MultiCell.ue22.udp droppedPkBadChecksum:vector(count):starttime nan
scalar MultiCell.ue22.udp droppedPkBadChecksum:vector(count):endtime nan
scalar MultiCell.ue22.app[0] packetReceived:vector(packetBytes):count 0
scalar MultiCell.ue22.app[0] packetReceived:vector(packetBytes):sum 0
scalar MultiCell.ue22.app[0] packetReceived:vector(packetBytes):sumweights 0
scalar MultiCell.ue22.app[0] packetReceived:vector(packetBytes):mean -nan
scalar MultiCell.ue22.app[0] packetReceived:vector(packetBytes):stddev nan
scalar MultiCell.ue22.app[0] packetReceived:vector(packetBytes):min inf
scalar MultiCell.ue22.app[0] packetReceived:vector(packetBytes):max -inf
scalar MultiCell.ue22.app[0] packetReceived:vector(packetBytes):starttime nan
scalar MultiCell.ue22.app[0] packetReceived:vector(packetBytes):endtime nan
scalar MultiCell.ue22.app[0] throughput:vector:count 0
scalar MultiCell.ue22.app[0] throughput:vector:sum 0
scalar MultiCell.ue22.app[0] throughput:vector:sumweights 0
scalar MultiCell.ue22.app[0] throughput:vector:mean -nan
scalar MultiCell.ue22.app[0] throughput:vector:stddev nan
scalar MultiCell.ue22.app[0] throughput:vector:min inf
scalar MultiCell.ue22.app[0] throughput:vector:max -inf
scalar MultiCell.ue22.app[0] throughput:vector:starttime nan
scalar MultiCell.ue22.app[0] throughput:vector:endtime nan
scalar MultiCell.ue22.app[0] endToEndDelay:vector:count 0
scalar MultiCell.ue22.app[0] endToEndDelay:vector:sum 0
scalar MultiCell.ue22.app[0] endToEndDelay:vector:sumweights 0
scalar MultiCell.ue22.app[0] endToEndDelay:vector:mean -nan
scalar MultiCell.ue22.app[0] endToEndDelay:vector:stddev nan
scalar MultiCell.ue22.app[0] endToEndDelay:vector:min inf
scalar MultiCell.ue22.app[0] endToEndDelay:vector:max -inf
scalar MultiCell.ue22.app[0] endToEndDelay:vector:starttime nan
scalar MultiCell.ue22.app[0] endToEndDelay:vector:endtime nan
scalar MultiCell.ue22.app[1] voipFrameDelay:vector:count 0
scalar MultiCell.ue22.app[1] voipFrameDelay:vector:sum 0
scalar MultiCell.ue22.app[1] voipFrameDelay:vector:sumweights 0
scalar MultiCell.ue22.app[1] voipFrameDelay:vector:mean -nan
scalar MultiCell.ue22.app[1] voipFrameDelay:vector:stddev nan
scalar MultiCell.ue22.app[1] voipFrameDelay:vector:min inf
scalar MultiCell.ue22.app[1] voipFrameDelay:vector:max -inf
scalar MultiCell.ue22.app[1] voipFrameDelay:vector:starttime nan
scalar MultiCell.ue22.app[1] voipFrameDelay:vector:endtime nan
scalar MultiCell.ue22.app[1] voipReceivedThroughput:vector:count 0
scalar MultiCell.ue22.app[1] voipReceivedThroughput:vector:sum 0
scalar MultiCell.ue22.app[1] voipReceivedThroughput:vector:sumweights 0
scalar MultiCell.ue22.app[1] voipReceivedThroughput:vector:mean -nan
scalar MultiCell.ue22.app[1] voipReceivedThroughput:vector:stddev nan
scalar MultiCell.ue22.app[1] voipReceivedThroughput:vector:min inf
scalar MultiCell.ue22.app[1] voipReceivedThroughput:vector:max -inf
scalar MultiCell.ue22.app[1] voipReceivedThroughput:vector:starttime nan
scalar MultiCell.ue22.app[1] voipReceivedThroughput:vector:endtime nan

