version 3
run VoIP_DL-UL-0-20260710-13:58:49-781064
attr configname VoIP_DL-UL
attr datetime 20260710-13:58:49
attr datetimef 20260710-135849
attr experiment VoIP_DL-UL
attr inifile omnetpp.ini
attr iterationvars "$numUEs=25, $directions=2"
attr iterationvarsd numUEs=25/directions=2
attr iterationvarsf numUEs=25,directions=2-
attr measurement "$numUEs=25, $directions=2"
attr network simu5g.simulations.lte.networks.SingleCell
attr processid 781064
attr repetition 0
attr replication #0
attr resultdir results
attr runnumber 0
attr seedset 0
itervar directions 2
itervar numUEs 25
config **.param-recording false
config image-path /home/andras/projects/Simu5G-fork/simu5g-fork/images
config output-scalar-file results/omnetpp.ini-VoIP_DL-UL-#0.sca
config output-scalar-precision 17
config output-vector-file results/omnetpp.ini-VoIP_DL-UL-#0.vec
config output-vector-precision 17
config record-eventlog false
config sim-time-limit 20s
config sim-time-limit 20s
config warmup-period 0s
config network simu5g.simulations.lte.networks.SingleCell
config **.numUe 25
config **.vector-recording false
config **.mac.schedulingDisciplineDl "\"MAXCI\""
config **.mac.schedulingDisciplineUl "\"MAXCI\""
config **.rbAllocationType "\"localized\""
config **.ue[*].servingNodeId 1
config *.ue[*].mobility.initFromDisplayString false
config *.ue[*].mobility.initialX uniform(200m,400m)
config *.ue[*].mobility.initialY uniform(200m,400m)
config *.ue[*].mobility.initialZ 0m
config *.ue[*].mobility.speed 0mps
config *.ue[*].mobility.typename LinearMobility
config *.eNB.mobility.initFromDisplayString false
config *.eNB.mobility.initialX 300m
config *.eNB.mobility.initialY 300m
config *.ue[*].numApps 2
config *.server.numApps "2 * 25"
config *.server.app[0..24].typename VoipReceiver
config *.server.app[0..24].localPort 4000+ancestorIndex(0)
config *.ue[*].app[1].packetSize 40B
config *.ue[*].app[1].destAddress "\"server\""
config *.ue[*].app[1].destPort 4000+ancestorIndex(1)
config *.ue[*].app[1].localPort 4088
config *.ue[*].app[1].typename VoipSender
config *.ue[*].app[1].startTime uniform(0s,0.02s)
config *.ue[*].app[0].typename VoipReceiver
config *.ue[*].app[0].localPort 3000
config *.server.app[25..].typename VoipSender
config *.server.app[25..].packetSize 40B
config *.server.app[25..].destAddress "\"ue[\"+string(ancestorIndex(0)-25)+\"]\""
config *.server.app[25..].destPort 3000
config *.server.app[25..].localPort 3088+ancestorIndex(0)
config *.server.app[25..].startTime uniform(0s,0.02s)
config sim-time-limit 20s
config output-scalar-file results/VoIP_DL-UL/0.sca
config output-vector-file results/VoIP_DL-UL/0.vec
config seed-set 0
config **.vector-recording false
config **.mobility.constraintAreaMinZ 0m
config **.mobility.constraintAreaMaxZ 0m
config **.mobility.initFromDisplayString true
config **.numBands 6
config **.ueTxPower 26dBm
config **.eNodeBTxPower 40dBm
config *.configurator.config "xmldoc(\"./demo.xml\")"

scalar SingleCell.server.lo[0].lo rcvdPkFromHl:count 0
scalar SingleCell.server.lo[0].lo rcvdPkFromHl:sum(packetBytes) 0
scalar SingleCell.server.lo[0].lo passedUpPk:count 0
scalar SingleCell.server.lo[0].lo passedUpPk:sum(packetBytes) 0
scalar SingleCell.server.lo[0] packetDropInterfaceDown:count 0
scalar SingleCell.server.lo[0] packetDropInterfaceDown:sum(packetBytes) 0
scalar SingleCell.server.lo[0] packetDropNoCarrier:count 0
scalar SingleCell.server.lo[0] packetDropNoCarrier:sum(packetBytes) 0
scalar SingleCell.server.ppp[0].queue queueLength:last 0
scalar SingleCell.server.ppp[0].queue queueLength:max 0
scalar SingleCell.server.ppp[0].queue queueLength:timeavg 0
scalar SingleCell.server.ppp[0].queue queueBitLength:last 0
scalar SingleCell.server.ppp[0].queue queueBitLength:max 0
scalar SingleCell.server.ppp[0].queue queueBitLength:timeavg 0
scalar SingleCell.server.ppp[0].queue outgoingPackets:count 16888
scalar SingleCell.server.ppp[0].queue outgoingPacketLengths:sum 9187072
scalar SingleCell.server.ppp[0].queue incomingPackets:count 16888
scalar SingleCell.server.ppp[0].queue incomingPacketLengths:sum 9187072
scalar SingleCell.server.ppp[0].queue droppedPacketsQueueOverflow:count 0
scalar SingleCell.server.ppp[0].queue droppedPacketLengthsQueueOverflow:sum 0
scalar SingleCell.server.ppp[0].ppp transmissionState:timeavg 5.0663999999993889e-05
scalar SingleCell.server.ppp[0].ppp rxPkOk:count 17712
scalar SingleCell.server.ppp[0].ppp rxPkOk:sum(packetBytes) 1328400
scalar SingleCell.server.ppp[0].ppp txPk:count 16888
scalar SingleCell.server.ppp[0].ppp txPk:sum(packetBytes) 1266600
scalar SingleCell.server.ppp[0].ppp rcvdPkFromHl:count 16888
scalar SingleCell.server.ppp[0].ppp rcvdPkFromHl:sum(packetBytes) 1148384
scalar SingleCell.server.ppp[0].ppp passedUpPk:count 17712
scalar SingleCell.server.ppp[0].ppp passedUpPk:sum(packetBytes) 1204416
scalar SingleCell.server.ppp[0].ppp packetDropIncorrectlyReceived:count 0
scalar SingleCell.server.ppp[0].ppp packetDropIncorrectlyReceived:sum(packetBytes) 0
scalar SingleCell.server.ppp[0].ppp packetDropInterfaceDown:count 0
scalar SingleCell.server.ppp[0].ppp packetDropInterfaceDown:sum(packetBytes) 0
scalar SingleCell.server.ppp[0] packetDropInterfaceDown:count 0
scalar SingleCell.server.ppp[0] packetDropInterfaceDown:sum(packetBytes) 0
scalar SingleCell.server.ppp[0] packetDropNoCarrier:count 0
scalar SingleCell.server.ppp[0] packetDropNoCarrier:sum(packetBytes) 0
scalar SingleCell.server.ipv4.ip packetDropAddressResolutionFailed:count 0
scalar SingleCell.server.ipv4.ip packetDropAddressResolutionFailed:sum(packetBytes) 0
scalar SingleCell.server.ipv4.ip packetDropHopLimitReached:count 0
scalar SingleCell.server.ipv4.ip packetDropHopLimitReached:sum(packetBytes) 0
scalar SingleCell.server.ipv4.ip packetDropForwardingDisabled:count 0
scalar SingleCell.server.ipv4.ip packetDropForwardingDisabled:sum(packetBytes) 0
scalar SingleCell.server.ipv4.ip packetDropNoInterfaceFound:count 0
scalar SingleCell.server.ipv4.ip packetDropNoInterfaceFound:sum(packetBytes) 0
scalar SingleCell.server.ipv4.ip packetDropNoRouteFound:count 0
scalar SingleCell.server.ipv4.ip packetDropNoRouteFound:sum(packetBytes) 0
scalar SingleCell.server.ipv4.ip packetDropUndefined:count 0
scalar SingleCell.server.ipv4.ip packetDropUndefined:sum(packetBytes) 0
scalar SingleCell.server.ipv4.arp arpResolutionFailed:count 0
scalar SingleCell.server.ipv4.arp arpResolutionCompleted:count 0
scalar SingleCell.server.ipv4.arp arpResolutionInitiated:count 0
scalar SingleCell.server.ipv4.arp arpReplySent:count 0
scalar SingleCell.server.ipv4.arp arpReplySent:sum(packetBytes) 0
scalar SingleCell.server.ipv4.arp arpRequestSent:count 0
scalar SingleCell.server.ipv4.arp arpRequestSent:sum(packetBytes) 0
scalar SingleCell.server.udp packetReceived:count 17712
scalar SingleCell.server.udp packetReceived:sum(packetBytes) 850176
scalar SingleCell.server.udp packetSent:count 16888
scalar SingleCell.server.udp packetSent:sum(packetBytes) 810624
scalar SingleCell.server.udp passedUpPk:count 17712
scalar SingleCell.server.udp droppedPkWrongPort:count 0
scalar SingleCell.server.udp droppedPkBadChecksum:count 0
scalar SingleCell.server.app[0] voipReceivedThroughput:simu5g_rateavg 1056.1833392716785
scalar SingleCell.server.app[0] voipPlayoutLoss:mean 0.006114725517710592
scalar SingleCell.server.app[0] voipJitter:mean 0.011599999999999999
scalar SingleCell.server.app[0] voipTaildropLoss:mean 0
scalar SingleCell.server.app[0] voipMos:mean 4.2682622851451972
scalar SingleCell.server.app[0] voipFrameDelay:mean 0.0087260446355079627
scalar SingleCell.server.app[0] voipFrameLoss:mean 0
scalar SingleCell.server.app[0] voipPlayoutDelay:mean 0.0037777777777777779
scalar SingleCell.server.app[1] voipReceivedThroughput:simu5g_rateavg 1223.7367263879876
scalar SingleCell.server.app[1] voipPlayoutLoss:mean 0.021434339168418842
scalar SingleCell.server.app[1] voipJitter:mean 0.012214241314285713
scalar SingleCell.server.app[1] voipTaildropLoss:mean 0
scalar SingleCell.server.app[1] voipMos:mean 3.9261338895816289
scalar SingleCell.server.app[1] voipFrameDelay:mean 0.0086493526948278106
scalar SingleCell.server.app[1] voipFrameLoss:mean 0
scalar SingleCell.server.app[1] voipPlayoutDelay:mean 0.0056666666666666671
scalar SingleCell.server.app[2] voipReceivedThroughput:simu5g_rateavg 1884.0120503430771
scalar SingleCell.server.app[2] voipPlayoutLoss:mean 0.0037566137566137567
scalar SingleCell.server.app[2] voipJitter:mean 0.015500000000000002
scalar SingleCell.server.app[2] voipTaildropLoss:mean 0
scalar SingleCell.server.app[2] voipMos:mean 4.3222551451474036
scalar SingleCell.server.app[2] voipFrameDelay:mean 0.0086925873088281487
scalar SingleCell.server.app[2] voipFrameLoss:mean 0
scalar SingleCell.server.app[2] voipPlayoutDelay:mean 0.013600000000000001
scalar SingleCell.server.app[3] voipReceivedThroughput:simu5g_rateavg 1118.4980744255158
scalar SingleCell.server.app[3] voipPlayoutLoss:mean 0.0037926675094816687
scalar SingleCell.server.app[3] voipJitter:mean 0.011000000000000001
scalar SingleCell.server.app[3] voipTaildropLoss:mean 0
scalar SingleCell.server.app[3] voipMos:mean 4.3182035195797814
scalar SingleCell.server.app[3] voipFrameDelay:mean 0.014412877092242789
scalar SingleCell.server.app[3] voipFrameLoss:mean 0
scalar SingleCell.server.app[3] voipPlayoutDelay:mean 0.0062857142857142851
scalar SingleCell.server.app[4] voipReceivedThroughput:simu5g_rateavg 1124.7949199820798
scalar SingleCell.server.app[4] voipPlayoutLoss:mean 0.03183468237823945
scalar SingleCell.server.app[4] voipJitter:mean 0.002486183877777777
scalar SingleCell.server.app[4] voipTaildropLoss:mean 0
scalar SingleCell.server.app[4] voipMos:mean 3.8834564541182051
scalar SingleCell.server.app[4] voipFrameDelay:mean 0.0089993825404520444
scalar SingleCell.server.app[4] voipFrameLoss:mean 0
scalar SingleCell.server.app[4] voipPlayoutDelay:mean 0.0089999999999999993
scalar SingleCell.server.app[5] voipReceivedThroughput:simu5g_rateavg 1095.8050352448608
scalar SingleCell.server.app[5] voipPlayoutLoss:mean 0.031447963800904977
scalar SingleCell.server.app[5] voipJitter:mean 0.0021187163118644116
scalar SingleCell.server.app[5] voipTaildropLoss:mean 0
scalar SingleCell.server.app[5] voipMos:mean 3.7925568917331502
scalar SingleCell.server.app[5] voipFrameDelay:mean 0.0084681473010827634
scalar SingleCell.server.app[5] voipFrameLoss:mean 0
scalar SingleCell.server.app[5] voipPlayoutDelay:mean 0.0078333481333333326
scalar SingleCell.server.app[6] voipReceivedThroughput:simu5g_rateavg 1450.4313036849685
scalar SingleCell.server.app[6] voipPlayoutLoss:mean 0.030697845156471705
scalar SingleCell.server.app[6] voipJitter:mean 0.0034222853688888914
scalar SingleCell.server.app[6] voipTaildropLoss:mean 0
scalar SingleCell.server.app[6] voipMos:mean 3.8120485835004088
scalar SingleCell.server.app[6] voipFrameDelay:mean 0.008654116397320227
scalar SingleCell.server.app[6] voipFrameLoss:mean 0
scalar SingleCell.server.app[6] voipPlayoutDelay:mean 0.0047272807999999998
scalar SingleCell.server.app[7] voipReceivedThroughput:simu5g_rateavg 956.11709312098697
scalar SingleCell.server.app[7] voipPlayoutLoss:mean 0.024116908732293347
scalar SingleCell.server.app[7] voipJitter:mean 0.0040000693750000035
scalar SingleCell.server.app[7] voipTaildropLoss:mean 0
scalar SingleCell.server.app[7] voipMos:mean 4.0103884197194573
scalar SingleCell.server.app[7] voipFrameDelay:mean 0.0087737079014170976
scalar SingleCell.server.app[7] voipFrameLoss:mean 0
scalar SingleCell.server.app[7] voipPlayoutDelay:mean 0.0043333333333333331
scalar SingleCell.server.app[8] voipReceivedThroughput:simu5g_rateavg 1750.4191118009091
scalar SingleCell.server.app[8] voipPlayoutLoss:mean 0.038906630400073861
scalar SingleCell.server.app[8] voipJitter:mean 0.0022118315670588283
scalar SingleCell.server.app[8] voipTaildropLoss:mean 0
scalar SingleCell.server.app[8] voipMos:mean 3.8044622350129123
scalar SingleCell.server.app[8] voipFrameDelay:mean 0.0088135352933512347
scalar SingleCell.server.app[8] voipFrameLoss:mean 0
scalar SingleCell.server.app[8] voipPlayoutDelay:mean 0.010857142857142855
scalar SingleCell.server.app[9] voipReceivedThroughput:simu5g_rateavg 1046.5130277722465
scalar SingleCell.server.app[9] voipPlayoutLoss:mean 0.0055160321372991622
scalar SingleCell.server.app[9] voipJitter:mean 0.0069999467199999997
scalar SingleCell.server.app[9] voipTaildropLoss:mean 0
scalar SingleCell.server.app[9] voipMos:mean 4.2840364465974128
scalar SingleCell.server.app[9] voipFrameDelay:mean 0.0086763226400715585
scalar SingleCell.server.app[9] voipFrameLoss:mean 0
scalar SingleCell.server.app[9] voipPlayoutDelay:mean 0.0039999999999999992
scalar SingleCell.server.app[10] voipReceivedThroughput:simu5g_rateavg 1666.6032090049343
scalar SingleCell.server.app[10] voipPlayoutLoss:mean 0.058589981447124302
scalar SingleCell.server.app[10] voipJitter:mean 0.001623440051948056
scalar SingleCell.server.app[10] voipTaildropLoss:mean 0
scalar SingleCell.server.app[10] voipMos:mean 3.7908644877082591
scalar SingleCell.server.app[10] voipFrameDelay:mean 0.0090438838957371832
scalar SingleCell.server.app[10] voipFrameLoss:mean 0
scalar SingleCell.server.app[10] voipPlayoutDelay:mean 0.0108571048
scalar SingleCell.server.app[11] voipReceivedThroughput:simu5g_rateavg 1319.5587142080353
scalar SingleCell.server.app[11] voipPlayoutLoss:mean 0.018053961664914586
scalar SingleCell.server.app[11] voipJitter:mean 0.0089999038000000003
scalar SingleCell.server.app[11] voipTaildropLoss:mean 0
scalar SingleCell.server.app[11] voipMos:mean 4.0286963580348338
scalar SingleCell.server.app[11] voipFrameDelay:mean 0.0088299832940682468
scalar SingleCell.server.app[11] voipFrameLoss:mean 0
scalar SingleCell.server.app[11] voipPlayoutDelay:mean 0.0065555851555555555
scalar SingleCell.server.app[12] voipReceivedThroughput:simu5g_rateavg 1527.2221005913664
scalar SingleCell.server.app[12] voipPlayoutLoss:mean 0.13989669381346248
scalar SingleCell.server.app[12] voipJitter:mean 0.0013120031853211022
scalar SingleCell.server.app[12] voipTaildropLoss:mean 0
scalar SingleCell.server.app[12] voipMos:mean 3.2927405421430951
scalar SingleCell.server.app[12] voipFrameDelay:mean 0.0087117114674377244
scalar SingleCell.server.app[12] voipFrameLoss:mean 0
scalar SingleCell.server.app[12] voipPlayoutDelay:mean 0.0033333333333333335
scalar SingleCell.server.app[13] voipReceivedThroughput:simu5g_rateavg 1626.1290772371444
scalar SingleCell.server.app[13] voipPlayoutLoss:mean 0.096093091020627269
scalar SingleCell.server.app[13] voipJitter:mean 0.0012451763921568619
scalar SingleCell.server.app[13] voipTaildropLoss:mean 0
scalar SingleCell.server.app[13] voipMos:mean 3.6551060325114699
scalar SingleCell.server.app[13] voipFrameDelay:mean 0.0086182263867506295
scalar SingleCell.server.app[13] voipFrameLoss:mean 0
scalar SingleCell.server.app[13] voipPlayoutDelay:mean 0.0094286094857142875
scalar SingleCell.server.app[14] voipReceivedThroughput:simu5g_rateavg 1653.0669110007768
scalar SingleCell.server.app[14] voipPlayoutLoss:mean 0.10566687572417165
scalar SingleCell.server.app[14] voipJitter:mean 0.0015341485738219959
scalar SingleCell.server.app[14] voipTaildropLoss:mean 0
scalar SingleCell.server.app[14] voipMos:mean 3.5507326351043673
scalar SingleCell.server.app[14] voipFrameDelay:mean 0.0087987164452665734
scalar SingleCell.server.app[14] voipFrameLoss:mean 0
scalar SingleCell.server.app[14] voipPlayoutDelay:mean 0.0085714793142857137
scalar SingleCell.server.app[15] voipReceivedThroughput:simu5g_rateavg 1471.720599090133
scalar SingleCell.server.app[15] voipPlayoutLoss:mean 0.069237456532538502
scalar SingleCell.server.app[15] voipJitter:mean 0.0013236112470588232
scalar SingleCell.server.app[15] voipTaildropLoss:mean 0
scalar SingleCell.server.app[15] voipMos:mean 3.401292576422557
scalar SingleCell.server.app[15] voipFrameDelay:mean 0.0092832902236130097
scalar SingleCell.server.app[15] voipFrameLoss:mean 0
scalar SingleCell.server.app[15] voipPlayoutDelay:mean 0.0093333037333333327
scalar SingleCell.server.app[16] voipReceivedThroughput:simu5g_rateavg 1473.0415078161436
scalar SingleCell.server.app[16] voipPlayoutLoss:mean 0.15230065675598317
scalar SingleCell.server.app[16] voipJitter:mean 0.0022718912155339816
scalar SingleCell.server.app[16] voipTaildropLoss:mean 0
scalar SingleCell.server.app[16] voipMos:mean 3.6048425260689205
scalar SingleCell.server.app[16] voipFrameDelay:mean 0.0086458329459730612
scalar SingleCell.server.app[16] voipFrameLoss:mean 0
scalar SingleCell.server.app[16] voipPlayoutDelay:mean 0.0044444839111111118
scalar SingleCell.server.app[17] voipReceivedThroughput:simu5g_rateavg 1913.2997306872294
scalar SingleCell.server.app[17] voipPlayoutLoss:mean 0.10012062726176114
scalar SingleCell.server.app[17] voipJitter:mean 0.00010852217831325262
scalar SingleCell.server.app[17] voipTaildropLoss:mean 0
scalar SingleCell.server.app[17] voipMos:mean 3.4167781050718897
scalar SingleCell.server.app[17] voipFrameDelay:mean 0.0089226241086214388
scalar SingleCell.server.app[17] voipFrameLoss:mean 0
scalar SingleCell.server.app[17] voipPlayoutDelay:mean 0.0059999999999999993
scalar SingleCell.server.app[18] voipReceivedThroughput:simu5g_rateavg 1434.1815354066678
scalar SingleCell.server.app[18] voipPlayoutLoss:mean 0.022628218638900896
scalar SingleCell.server.app[18] voipJitter:mean 0.0065713778285714283
scalar SingleCell.server.app[18] voipTaildropLoss:mean 0
scalar SingleCell.server.app[18] voipMos:mean 3.9500853107742269
scalar SingleCell.server.app[18] voipFrameDelay:mean 0.0090009583296930106
scalar SingleCell.server.app[18] voipFrameLoss:mean 0
scalar SingleCell.server.app[18] voipPlayoutDelay:mean 0.0064545615999999995
scalar SingleCell.server.app[19] voipReceivedThroughput:simu5g_rateavg 1203.7262183952255
scalar SingleCell.server.app[19] voipPlayoutLoss:mean 0.051440921788110806
scalar SingleCell.server.app[19] voipJitter:mean 0.0019286602285714289
scalar SingleCell.server.app[19] voipTaildropLoss:mean 0
scalar SingleCell.server.app[19] voipMos:mean 3.8904428019496069
scalar SingleCell.server.app[19] voipFrameDelay:mean 0.0086948989338523838
scalar SingleCell.server.app[19] voipFrameLoss:mean 0
scalar SingleCell.server.app[19] voipPlayoutDelay:mean 0.0056428634857142862
scalar SingleCell.server.app[20] voipReceivedThroughput:simu5g_rateavg 1669.6686459146561
scalar SingleCell.server.app[20] voipPlayoutLoss:mean 0.013470940525735045
scalar SingleCell.server.app[20] voipJitter:mean 0.0079999556000000006
scalar SingleCell.server.app[20] voipTaildropLoss:mean 0
scalar SingleCell.server.app[20] voipMos:mean 4.0986283770238492
scalar SingleCell.server.app[20] voipFrameDelay:mean 0.0085140274433070356
scalar SingleCell.server.app[20] voipFrameLoss:mean 0
scalar SingleCell.server.app[20] voipPlayoutDelay:mean 0.0058749889000000001
scalar SingleCell.server.app[21] voipReceivedThroughput:simu5g_rateavg 1379.922469744371
scalar SingleCell.server.app[21] voipPlayoutLoss:mean 0.082442061004688955
scalar SingleCell.server.app[21] voipJitter:mean 0.0013906902124999998
scalar SingleCell.server.app[21] voipTaildropLoss:mean 0
scalar SingleCell.server.app[21] voipMos:mean 3.6189482138460409
scalar SingleCell.server.app[21] voipFrameDelay:mean 0.0086417347524560158
scalar SingleCell.server.app[21] voipFrameLoss:mean 0
scalar SingleCell.server.app[21] voipPlayoutDelay:mean 0.0086363878545454541
scalar SingleCell.server.app[22] voipReceivedThroughput:simu5g_rateavg 1764.1251410494401
scalar SingleCell.server.app[22] voipPlayoutLoss:mean 0.048072137799613238
scalar SingleCell.server.app[22] voipJitter:mean 0.00029519405901639331
scalar SingleCell.server.app[22] voipTaildropLoss:mean 0
scalar SingleCell.server.app[22] voipMos:mean 3.795984565436092
scalar SingleCell.server.app[22] voipFrameDelay:mean 0.008628350175555962
scalar SingleCell.server.app[22] voipFrameLoss:mean 0
scalar SingleCell.server.app[22] voipPlayoutDelay:mean 0.0048000355199999999
scalar SingleCell.server.app[23] voipReceivedThroughput:simu5g_rateavg 1739.6739392262102
scalar SingleCell.server.app[23] voipPlayoutLoss:mean 0.15807823129251702
scalar SingleCell.server.app[23] voipJitter:mean 0.0011527958045801561
scalar SingleCell.server.app[23] voipTaildropLoss:mean 0
scalar SingleCell.server.app[23] voipMos:mean 2.8904945974630238
scalar SingleCell.server.app[23] voipFrameDelay:mean 0.0087140367547335722
scalar SingleCell.server.app[23] voipFrameLoss:mean 0
scalar SingleCell.server.app[23] voipPlayoutDelay:mean 0.010714323771428572
scalar SingleCell.server.app[24] voipReceivedThroughput:simu5g_rateavg 1540.251322700876
scalar SingleCell.server.app[24] voipPlayoutLoss:mean 0.0092151429780408436
scalar SingleCell.server.app[24] voipJitter:mean 0.0061332918933333343
scalar SingleCell.server.app[24] voipTaildropLoss:mean 0
scalar SingleCell.server.app[24] voipMos:mean 4.1984083665886285
scalar SingleCell.server.app[24] voipFrameDelay:mean 0.0087107426148510698
scalar SingleCell.server.app[24] voipFrameLoss:mean 0
scalar SingleCell.server.app[24] voipPlayoutDelay:mean 0.0063332839999999998
scalar SingleCell.server.app[25] voipGeneratedThroughput:simu5g_rateavg 1444.7262685134867
scalar SingleCell.server.app[26] voipGeneratedThroughput:simu5g_rateavg 801.27088822129076
scalar SingleCell.server.app[27] voipGeneratedThroughput:simu5g_rateavg 1331.7072732873639
scalar SingleCell.server.app[28] voipGeneratedThroughput:simu5g_rateavg 1671.3301344762476
scalar SingleCell.server.app[29] voipGeneratedThroughput:simu5g_rateavg 1208.5724629262772
scalar SingleCell.server.app[30] voipGeneratedThroughput:simu5g_rateavg 1059.7502814679319
scalar SingleCell.server.app[31] voipGeneratedThroughput:simu5g_rateavg 1313.6818454860845
scalar SingleCell.server.app[32] voipGeneratedThroughput:simu5g_rateavg 1187.3001087108223
scalar SingleCell.server.app[33] voipGeneratedThroughput:simu5g_rateavg 1694.5308199156796
scalar SingleCell.server.app[34] voipGeneratedThroughput:simu5g_rateavg 1078.6247313051615
scalar SingleCell.server.app[35] voipGeneratedThroughput:simu5g_rateavg 1516.0815176251128
scalar SingleCell.server.app[36] voipGeneratedThroughput:simu5g_rateavg 1466.4469773658839
scalar SingleCell.server.app[37] voipGeneratedThroughput:simu5g_rateavg 968.26864634485696
scalar SingleCell.server.app[38] voipGeneratedThroughput:simu5g_rateavg 1290.3313465663757
scalar SingleCell.server.app[39] voipGeneratedThroughput:simu5g_rateavg 1414.559849876933
scalar SingleCell.server.app[40] voipGeneratedThroughput:simu5g_rateavg 1174.3145127878479
scalar SingleCell.server.app[41] voipGeneratedThroughput:simu5g_rateavg 1214.4287654863888
scalar SingleCell.server.app[42] voipGeneratedThroughput:simu5g_rateavg 1859.9420331514339
scalar SingleCell.server.app[43] voipGeneratedThroughput:simu5g_rateavg 1467.9541780587078
scalar SingleCell.server.app[44] voipGeneratedThroughput:simu5g_rateavg 1497.5931096999795
scalar SingleCell.server.app[45] voipGeneratedThroughput:simu5g_rateavg 1561.6524366981762
scalar SingleCell.server.app[46] voipGeneratedThroughput:simu5g_rateavg 968.41053467743541
scalar SingleCell.server.app[47] voipGeneratedThroughput:simu5g_rateavg 1060.2271746477579
scalar SingleCell.server.app[48] voipGeneratedThroughput:simu5g_rateavg 920.30892706512464
scalar SingleCell.server.app[49] voipGeneratedThroughput:simu5g_rateavg 1591.2815292341545
scalar SingleCell.router.lo[0].lo rcvdPkFromHl:count 0
scalar SingleCell.router.lo[0].lo rcvdPkFromHl:sum(packetBytes) 0
scalar SingleCell.router.lo[0].lo passedUpPk:count 0
scalar SingleCell.router.lo[0].lo passedUpPk:sum(packetBytes) 0
scalar SingleCell.router.lo[0] packetDropInterfaceDown:count 0
scalar SingleCell.router.lo[0] packetDropInterfaceDown:sum(packetBytes) 0
scalar SingleCell.router.lo[0] packetDropNoCarrier:count 0
scalar SingleCell.router.lo[0] packetDropNoCarrier:sum(packetBytes) 0
scalar SingleCell.router.ppp[0].queue queueLength:last 0
scalar SingleCell.router.ppp[0].queue queueLength:max 0
scalar SingleCell.router.ppp[0].queue queueLength:timeavg 0
scalar SingleCell.router.ppp[0].queue queueBitLength:last 0
scalar SingleCell.router.ppp[0].queue queueBitLength:max 0
scalar SingleCell.router.ppp[0].queue queueBitLength:timeavg 0
scalar SingleCell.router.ppp[0].queue outgoingPackets:count 17712
scalar SingleCell.router.ppp[0].queue outgoingPacketLengths:sum 9635328
scalar SingleCell.router.ppp[0].queue incomingPackets:count 17712
scalar SingleCell.router.ppp[0].queue incomingPacketLengths:sum 9635328
scalar SingleCell.router.ppp[0].queue droppedPacketsQueueOverflow:count 0
scalar SingleCell.router.ppp[0].queue droppedPacketLengthsQueueOverflow:sum 0
scalar SingleCell.router.ppp[0].ppp transmissionState:timeavg 5.3135999999997073e-05
scalar SingleCell.router.ppp[0].ppp rxPkOk:count 16888
scalar SingleCell.router.ppp[0].ppp rxPkOk:sum(packetBytes) 1266600
scalar SingleCell.router.ppp[0].ppp txPk:count 17712
scalar SingleCell.router.ppp[0].ppp txPk:sum(packetBytes) 1328400
scalar SingleCell.router.ppp[0].ppp rcvdPkFromHl:count 17712
scalar SingleCell.router.ppp[0].ppp rcvdPkFromHl:sum(packetBytes) 1204416
scalar SingleCell.router.ppp[0].ppp passedUpPk:count 16888
scalar SingleCell.router.ppp[0].ppp passedUpPk:sum(packetBytes) 1148384
scalar SingleCell.router.ppp[0].ppp packetDropIncorrectlyReceived:count 0
scalar SingleCell.router.ppp[0].ppp packetDropIncorrectlyReceived:sum(packetBytes) 0
scalar SingleCell.router.ppp[0].ppp packetDropInterfaceDown:count 0
scalar SingleCell.router.ppp[0].ppp packetDropInterfaceDown:sum(packetBytes) 0
scalar SingleCell.router.ppp[0] packetDropInterfaceDown:count 0
scalar SingleCell.router.ppp[0] packetDropInterfaceDown:sum(packetBytes) 0
scalar SingleCell.router.ppp[0] packetDropNoCarrier:count 0
scalar SingleCell.router.ppp[0] packetDropNoCarrier:sum(packetBytes) 0
scalar SingleCell.router.ppp[1].queue queueLength:last 0
scalar SingleCell.router.ppp[1].queue queueLength:max 0
scalar SingleCell.router.ppp[1].queue queueLength:timeavg 0
scalar SingleCell.router.ppp[1].queue queueBitLength:last 0
scalar SingleCell.router.ppp[1].queue queueBitLength:max 0
scalar SingleCell.router.ppp[1].queue queueBitLength:timeavg 0
scalar SingleCell.router.ppp[1].queue outgoingPackets:count 16888
scalar SingleCell.router.ppp[1].queue outgoingPacketLengths:sum 9187072
scalar SingleCell.router.ppp[1].queue incomingPackets:count 16888
scalar SingleCell.router.ppp[1].queue incomingPacketLengths:sum 9187072
scalar SingleCell.router.ppp[1].queue droppedPacketsQueueOverflow:count 0
scalar SingleCell.router.ppp[1].queue droppedPacketLengthsQueueOverflow:sum 0
scalar SingleCell.router.ppp[1].ppp transmissionState:timeavg 5.0663999999993889e-05
scalar SingleCell.router.ppp[1].ppp rxPkOk:count 17712
scalar SingleCell.router.ppp[1].ppp rxPkOk:sum(packetBytes) 1328400
scalar SingleCell.router.ppp[1].ppp txPk:count 16888
scalar SingleCell.router.ppp[1].ppp txPk:sum(packetBytes) 1266600
scalar SingleCell.router.ppp[1].ppp rcvdPkFromHl:count 16888
scalar SingleCell.router.ppp[1].ppp rcvdPkFromHl:sum(packetBytes) 1148384
scalar SingleCell.router.ppp[1].ppp passedUpPk:count 17712
scalar SingleCell.router.ppp[1].ppp passedUpPk:sum(packetBytes) 1204416
scalar SingleCell.router.ppp[1].ppp packetDropIncorrectlyReceived:count 0
scalar SingleCell.router.ppp[1].ppp packetDropIncorrectlyReceived:sum(packetBytes) 0
scalar SingleCell.router.ppp[1].ppp packetDropInterfaceDown:count 0
scalar SingleCell.router.ppp[1].ppp packetDropInterfaceDown:sum(packetBytes) 0
scalar SingleCell.router.ppp[1] packetDropInterfaceDown:count 0
scalar SingleCell.router.ppp[1] packetDropInterfaceDown:sum(packetBytes) 0
scalar SingleCell.router.ppp[1] packetDropNoCarrier:count 0
scalar SingleCell.router.ppp[1] packetDropNoCarrier:sum(packetBytes) 0
scalar SingleCell.router.ipv4.ip packetDropAddressResolutionFailed:count 0
scalar SingleCell.router.ipv4.ip packetDropAddressResolutionFailed:sum(packetBytes) 0
scalar SingleCell.router.ipv4.ip packetDropHopLimitReached:count 0
scalar SingleCell.router.ipv4.ip packetDropHopLimitReached:sum(packetBytes) 0
scalar SingleCell.router.ipv4.ip packetDropForwardingDisabled:count 0
scalar SingleCell.router.ipv4.ip packetDropForwardingDisabled:sum(packetBytes) 0
scalar SingleCell.router.ipv4.ip packetDropNoInterfaceFound:count 0
scalar SingleCell.router.ipv4.ip packetDropNoInterfaceFound:sum(packetBytes) 0
scalar SingleCell.router.ipv4.ip packetDropNoRouteFound:count 0
scalar SingleCell.router.ipv4.ip packetDropNoRouteFound:sum(packetBytes) 0
scalar SingleCell.router.ipv4.ip packetDropUndefined:count 0
scalar SingleCell.router.ipv4.ip packetDropUndefined:sum(packetBytes) 0
scalar SingleCell.router.ipv4.arp arpResolutionFailed:count 0
scalar SingleCell.router.ipv4.arp arpResolutionCompleted:count 0
scalar SingleCell.router.ipv4.arp arpResolutionInitiated:count 0
scalar SingleCell.router.ipv4.arp arpReplySent:count 0
scalar SingleCell.router.ipv4.arp arpReplySent:sum(packetBytes) 0
scalar SingleCell.router.ipv4.arp arpRequestSent:count 0
scalar SingleCell.router.ipv4.arp arpRequestSent:sum(packetBytes) 0
scalar SingleCell.pgw.lo[0].lo rcvdPkFromHl:count 0
scalar SingleCell.pgw.lo[0].lo rcvdPkFromHl:sum(packetBytes) 0
scalar SingleCell.pgw.lo[0].lo passedUpPk:count 0
scalar SingleCell.pgw.lo[0].lo passedUpPk:sum(packetBytes) 0
scalar SingleCell.pgw.lo[0] packetDropInterfaceDown:count 0
scalar SingleCell.pgw.lo[0] packetDropInterfaceDown:sum(packetBytes) 0
scalar SingleCell.pgw.lo[0] packetDropNoCarrier:count 0
scalar SingleCell.pgw.lo[0] packetDropNoCarrier:sum(packetBytes) 0
scalar SingleCell.pgw.ppp[0].queue queueLength:last 0
scalar SingleCell.pgw.ppp[0].queue queueLength:max 0
scalar SingleCell.pgw.ppp[0].queue queueLength:timeavg 0
scalar SingleCell.pgw.ppp[0].queue queueBitLength:last 0
scalar SingleCell.pgw.ppp[0].queue queueBitLength:max 0
scalar SingleCell.pgw.ppp[0].queue queueBitLength:timeavg 0
scalar SingleCell.pgw.ppp[0].queue outgoingPackets:count 16888
scalar SingleCell.pgw.ppp[0].queue outgoingPacketLengths:sum 14050816
scalar SingleCell.pgw.ppp[0].queue incomingPackets:count 16888
scalar SingleCell.pgw.ppp[0].queue incomingPacketLengths:sum 14050816
scalar SingleCell.pgw.ppp[0].queue droppedPacketsQueueOverflow:count 0
scalar SingleCell.pgw.ppp[0].queue droppedPacketLengthsQueueOverflow:sum 0
scalar SingleCell.pgw.ppp[0].ppp transmissionState:timeavg 7.4982719999983782e-05
scalar SingleCell.pgw.ppp[0].ppp rxPkOk:count 17712
scalar SingleCell.pgw.ppp[0].ppp rxPkOk:sum(packetBytes) 1966032
scalar SingleCell.pgw.ppp[0].ppp txPk:count 16888
scalar SingleCell.pgw.ppp[0].ppp txPk:sum(packetBytes) 1874568
scalar SingleCell.pgw.ppp[0].ppp rcvdPkFromHl:count 16888
scalar SingleCell.pgw.ppp[0].ppp rcvdPkFromHl:sum(packetBytes) 1756352
scalar SingleCell.pgw.ppp[0].ppp passedUpPk:count 17712
scalar SingleCell.pgw.ppp[0].ppp passedUpPk:sum(packetBytes) 1842048
scalar SingleCell.pgw.ppp[0].ppp packetDropIncorrectlyReceived:count 0
scalar SingleCell.pgw.ppp[0].ppp packetDropIncorrectlyReceived:sum(packetBytes) 0
scalar SingleCell.pgw.ppp[0].ppp packetDropInterfaceDown:count 0
scalar SingleCell.pgw.ppp[0].ppp packetDropInterfaceDown:sum(packetBytes) 0
scalar SingleCell.pgw.ppp[0] packetDropInterfaceDown:count 0
scalar SingleCell.pgw.ppp[0] packetDropInterfaceDown:sum(packetBytes) 0
scalar SingleCell.pgw.ppp[0] packetDropNoCarrier:count 0
scalar SingleCell.pgw.ppp[0] packetDropNoCarrier:sum(packetBytes) 0
scalar SingleCell.pgw.ipv4.ip packetDropAddressResolutionFailed:count 0
scalar SingleCell.pgw.ipv4.ip packetDropAddressResolutionFailed:sum(packetBytes) 0
scalar SingleCell.pgw.ipv4.ip packetDropHopLimitReached:count 0
scalar SingleCell.pgw.ipv4.ip packetDropHopLimitReached:sum(packetBytes) 0
scalar SingleCell.pgw.ipv4.ip packetDropForwardingDisabled:count 0
scalar SingleCell.pgw.ipv4.ip packetDropForwardingDisabled:sum(packetBytes) 0
scalar SingleCell.pgw.ipv4.ip packetDropNoInterfaceFound:count 0
scalar SingleCell.pgw.ipv4.ip packetDropNoInterfaceFound:sum(packetBytes) 0
scalar SingleCell.pgw.ipv4.ip packetDropNoRouteFound:count 0
scalar SingleCell.pgw.ipv4.ip packetDropNoRouteFound:sum(packetBytes) 0
scalar SingleCell.pgw.ipv4.ip packetDropUndefined:count 0
scalar SingleCell.pgw.ipv4.ip packetDropUndefined:sum(packetBytes) 0
scalar SingleCell.pgw.ipv4.arp arpResolutionFailed:count 0
scalar SingleCell.pgw.ipv4.arp arpResolutionCompleted:count 0
scalar SingleCell.pgw.ipv4.arp arpResolutionInitiated:count 0
scalar SingleCell.pgw.ipv4.arp arpReplySent:count 0
scalar SingleCell.pgw.ipv4.arp arpReplySent:sum(packetBytes) 0
scalar SingleCell.pgw.ipv4.arp arpRequestSent:count 0
scalar SingleCell.pgw.ipv4.arp arpRequestSent:sum(packetBytes) 0
scalar SingleCell.pgw.pppIf.queue queueLength:last 0
scalar SingleCell.pgw.pppIf.queue queueLength:max 0
scalar SingleCell.pgw.pppIf.queue queueLength:timeavg 0
scalar SingleCell.pgw.pppIf.queue queueBitLength:last 0
scalar SingleCell.pgw.pppIf.queue queueBitLength:max 0
scalar SingleCell.pgw.pppIf.queue queueBitLength:timeavg 0
scalar SingleCell.pgw.pppIf.queue outgoingPackets:count 17712
scalar SingleCell.pgw.pppIf.queue outgoingPacketLengths:sum 9635328
scalar SingleCell.pgw.pppIf.queue incomingPackets:count 17712
scalar SingleCell.pgw.pppIf.queue incomingPacketLengths:sum 9635328
scalar SingleCell.pgw.pppIf.queue droppedPacketsQueueOverflow:count 0
scalar SingleCell.pgw.pppIf.queue droppedPacketLengthsQueueOverflow:sum 0
scalar SingleCell.pgw.pppIf.ppp transmissionState:timeavg 5.3135999999997073e-05
scalar SingleCell.pgw.pppIf.ppp rxPkOk:count 16888
scalar SingleCell.pgw.pppIf.ppp rxPkOk:sum(packetBytes) 1266600
scalar SingleCell.pgw.pppIf.ppp txPk:count 17712
scalar SingleCell.pgw.pppIf.ppp txPk:sum(packetBytes) 1328400
scalar SingleCell.pgw.pppIf.ppp rcvdPkFromHl:count 17712
scalar SingleCell.pgw.pppIf.ppp rcvdPkFromHl:sum(packetBytes) 1204416
scalar SingleCell.pgw.pppIf.ppp passedUpPk:count 16888
scalar SingleCell.pgw.pppIf.ppp passedUpPk:sum(packetBytes) 1148384
scalar SingleCell.pgw.pppIf.ppp packetDropIncorrectlyReceived:count 0
scalar SingleCell.pgw.pppIf.ppp packetDropIncorrectlyReceived:sum(packetBytes) 0
scalar SingleCell.pgw.pppIf.ppp packetDropInterfaceDown:count 0
scalar SingleCell.pgw.pppIf.ppp packetDropInterfaceDown:sum(packetBytes) 0
scalar SingleCell.pgw.pppIf packetDropInterfaceDown:count 0
scalar SingleCell.pgw.pppIf packetDropInterfaceDown:sum(packetBytes) 0
scalar SingleCell.pgw.pppIf packetDropNoCarrier:count 0
scalar SingleCell.pgw.pppIf packetDropNoCarrier:sum(packetBytes) 0
scalar SingleCell.pgw.udp packetReceived:count 17712
scalar SingleCell.pgw.udp packetReceived:sum(packetBytes) 1487808
scalar SingleCell.pgw.udp packetSent:count 16888
scalar SingleCell.pgw.udp packetSent:sum(packetBytes) 1418592
scalar SingleCell.pgw.udp passedUpPk:count 17712
scalar SingleCell.pgw.udp droppedPkWrongPort:count 0
scalar SingleCell.pgw.udp droppedPkBadChecksum:count 0
scalar SingleCell.eNB.cellularNic.pdcp sentPacketToLowerLayer:count 16888
scalar SingleCell.eNB.cellularNic.pdcp sentPacketToLowerLayer:sum(packetBytes) 1165272
scalar SingleCell.eNB.cellularNic.pdcp sentPacketToUpperLayer:count 17712
scalar SingleCell.eNB.cellularNic.pdcp sentPacketToUpperLayer:sum(packetBytes) 1204416
scalar SingleCell.eNB.cellularNic.pdcp receivedPacketFromLowerLayer:count 17712
scalar SingleCell.eNB.cellularNic.pdcp receivedPacketFromLowerLayer:sum(packetBytes) 1222128
scalar SingleCell.eNB.cellularNic.pdcp receivedPacketFromUpperLayer:count 16888
scalar SingleCell.eNB.cellularNic.pdcp receivedPacketFromUpperLayer:sum(packetBytes) 1148384
scalar SingleCell.eNB.cellularNic.rlc.tm rlcPacketLossUl:mean -nan
scalar SingleCell.eNB.cellularNic.rlc.tm rlcPacketLossUl:sum 0
scalar SingleCell.eNB.cellularNic.rlc.tm rlcPacketLossDl:mean -nan
scalar SingleCell.eNB.cellularNic.rlc.tm rlcPacketLossDl:sum 0
scalar SingleCell.eNB.cellularNic.rlc.tm sentPacketToLowerLayer:count 0
scalar SingleCell.eNB.cellularNic.rlc.tm sentPacketToLowerLayer:sum(packetBytes) 0
scalar SingleCell.eNB.cellularNic.rlc.tm sentPacketToUpperLayer:count 0
scalar SingleCell.eNB.cellularNic.rlc.tm sentPacketToUpperLayer:sum(packetBytes) 0
scalar SingleCell.eNB.cellularNic.rlc.tm receivedPacketFromLowerLayer:count 0
scalar SingleCell.eNB.cellularNic.rlc.tm receivedPacketFromLowerLayer:sum(packetBytes) 0
scalar SingleCell.eNB.cellularNic.rlc.tm receivedPacketFromUpperLayer:count 0
scalar SingleCell.eNB.cellularNic.rlc.tm receivedPacketFromUpperLayer:sum(packetBytes) 0
scalar SingleCell.eNB.cellularNic.rlc.um rlcCellThroughputUl:simu5g_rateavg 121182.615600231
scalar SingleCell.eNB.cellularNic.rlc.um rlcCellThroughputDl:simu5g_rateavg 121192.10497483988
scalar SingleCell.eNB.cellularNic.rlc.um rlcPduThroughputUl:simu5g_rateavg -nan
scalar SingleCell.eNB.cellularNic.rlc.um rlcPduThroughputDl:simu5g_rateavg -nan
scalar SingleCell.eNB.cellularNic.rlc.um rlcPduDelayUl:mean -nan
scalar SingleCell.eNB.cellularNic.rlc.um rlcPduDelayDl:mean -nan
scalar SingleCell.eNB.cellularNic.rlc.um rlcThroughputUl:simu5g_rateavg -nan
scalar SingleCell.eNB.cellularNic.rlc.um rlcThroughputDl:simu5g_rateavg -nan
scalar SingleCell.eNB.cellularNic.rlc.um rlcDelayUl:mean -nan
scalar SingleCell.eNB.cellularNic.rlc.um rlcDelayDl:mean -nan
scalar SingleCell.eNB.cellularNic.rlc.um sentPacketToLowerLayer:count 16888
scalar SingleCell.eNB.cellularNic.rlc.um sentPacketToLowerLayer:sum(packetBytes) 1199048
scalar SingleCell.eNB.cellularNic.rlc.um sentPacketToUpperLayer:count 17712
scalar SingleCell.eNB.cellularNic.rlc.um sentPacketToUpperLayer:sum(packetBytes) 1222128
scalar SingleCell.eNB.cellularNic.rlc.um receivedPacketFromLowerLayer:count 18411
scalar SingleCell.eNB.cellularNic.rlc.um receivedPacketFromLowerLayer:sum(packetBytes) 1258950
scalar SingleCell.eNB.cellularNic.rlc.um receivedPacketFromUpperLayer:count 16888
scalar SingleCell.eNB.cellularNic.rlc.um receivedPacketFromUpperLayer:sum(packetBytes) 1165272
scalar SingleCell.eNB.cellularNic.rlc.am rlcPacketLossTotal:mean -nan
scalar SingleCell.eNB.cellularNic.rlc.am rlcCellThroughputUl:simu5g_rateavg -nan
scalar SingleCell.eNB.cellularNic.rlc.am rlcCellThroughputDl:simu5g_rateavg -nan
scalar SingleCell.eNB.cellularNic.rlc.am rlcPduThroughputUl:simu5g_rateavg -nan
scalar SingleCell.eNB.cellularNic.rlc.am rlcPduThroughputDl:simu5g_rateavg -nan
scalar SingleCell.eNB.cellularNic.rlc.am rlcPduDelayUl:mean -nan
scalar SingleCell.eNB.cellularNic.rlc.am rlcPduDelayDl:mean -nan
scalar SingleCell.eNB.cellularNic.rlc.am rlcThroughputUl:simu5g_rateavg -nan
scalar SingleCell.eNB.cellularNic.rlc.am rlcThroughputDl:simu5g_rateavg -nan
scalar SingleCell.eNB.cellularNic.rlc.am rlcDelayUl:mean -nan
scalar SingleCell.eNB.cellularNic.rlc.am rlcDelayDl:mean -nan
scalar SingleCell.eNB.cellularNic.rlc.am rlcPduPacketLossUl:mean -nan
scalar SingleCell.eNB.cellularNic.rlc.am rlcPduPacketLossDl:mean -nan
scalar SingleCell.eNB.cellularNic.rlc.am rlcPacketLossUl:mean -nan
scalar SingleCell.eNB.cellularNic.rlc.am rlcPacketLossDl:mean -nan
scalar SingleCell.eNB.cellularNic.rlc.am rlcCellPacketLossUl:mean -nan
scalar SingleCell.eNB.cellularNic.rlc.am rlcCellPacketLossDl:mean -nan
scalar SingleCell.eNB.cellularNic.mac avgServedBlocksUl:mean 0.92069999999999996
scalar SingleCell.eNB.cellularNic.mac avgServedBlocksDl:mean 0.84440000000000004
scalar SingleCell.eNB.cellularNic.mac harqTxAttemptsUl:mean -nan
scalar SingleCell.eNB.cellularNic.mac harqTxAttemptsDl:mean -nan
scalar SingleCell.eNB.cellularNic.mac harqErrorRate_4th_Ul:mean -nan
scalar SingleCell.eNB.cellularNic.mac harqErrorRate_4th_Dl:mean -nan
scalar SingleCell.eNB.cellularNic.mac harqErrorRate_3rd_Ul:mean -nan
scalar SingleCell.eNB.cellularNic.mac harqErrorRate_3rd_Dl:mean -nan
scalar SingleCell.eNB.cellularNic.mac harqErrorRate_2nd_Ul:mean -nan
scalar SingleCell.eNB.cellularNic.mac harqErrorRate_2nd_Dl:mean -nan
scalar SingleCell.eNB.cellularNic.mac harqErrorRate_1st_Ul:mean -nan
scalar SingleCell.eNB.cellularNic.mac harqErrorRate_1st_Dl:mean -nan
scalar SingleCell.eNB.cellularNic.mac harqErrorRateUl:mean -nan
scalar SingleCell.eNB.cellularNic.mac harqErrorRateDl:mean -nan
scalar SingleCell.eNB.cellularNic.mac macCellPacketLossUl:mean 0
scalar SingleCell.eNB.cellularNic.mac macCellPacketLossDl:mean 0
scalar SingleCell.eNB.cellularNic.mac macPacketLossUl:mean -nan
scalar SingleCell.eNB.cellularNic.mac macPacketLossDl:mean -nan
scalar SingleCell.eNB.cellularNic.mac macThroughputUl:simu5g_rateavg -nan
scalar SingleCell.eNB.cellularNic.mac macThroughputDl:simu5g_rateavg -nan
scalar SingleCell.eNB.cellularNic.mac macDelayUl:mean -nan
scalar SingleCell.eNB.cellularNic.mac macDelayDl:mean -nan
scalar SingleCell.eNB.cellularNic.mac macCellThroughputUl:simu5g_rateavg 128326.96063013969
scalar SingleCell.eNB.cellularNic.mac macCellThroughputDl:simu5g_rateavg 128339.05202812981
scalar SingleCell.eNB.cellularNic.mac sentPacketToLowerLayer:count 71575
scalar SingleCell.eNB.cellularNic.mac sentPacketToLowerLayer:sum(packetBytes) 1287511
scalar SingleCell.eNB.cellularNic.mac sentPacketToUpperLayer:count 35299
scalar SingleCell.eNB.cellularNic.mac sentPacketToUpperLayer:sum(packetBytes) 1275838
scalar SingleCell.eNB.cellularNic.mac receivedPacketFromLowerLayer:count 136507
scalar SingleCell.eNB.cellularNic.mac receivedPacketFromLowerLayer:sum(packetBytes) 1413940
scalar SingleCell.eNB.cellularNic.mac receivedPacketFromUpperLayer:count 33776
scalar SingleCell.eNB.cellularNic.mac receivedPacketFromUpperLayer:sum(packetBytes) 2364320
scalar SingleCell.eNB.cellularNic.mac macBufferOverFlowD2D:mean -nan
scalar SingleCell.eNB.cellularNic.mac macBufferOverFlowUl:mean -nan
scalar SingleCell.eNB.cellularNic.mac macBufferOverFlowDl:mean -nan
scalar SingleCell.eNB.cellularNic.channelModel[0] measuredSinrUl:mean -nan
scalar SingleCell.eNB.cellularNic.channelModel[0] measuredSinrDl:mean -nan
scalar SingleCell.eNB.cellularNic.channelModel[0] rcvdSinrD2D:mean -nan
scalar SingleCell.eNB.cellularNic.channelModel[0] rcvdSinrUl:mean -nan
scalar SingleCell.eNB.cellularNic.channelModel[0] rcvdSinrDl:mean -nan
scalar SingleCell.eNB.cellularNic packetDropInterfaceDown:count 0
scalar SingleCell.eNB.cellularNic packetDropInterfaceDown:sum(packetBytes) 0
scalar SingleCell.eNB.cellularNic packetDropNoCarrier:count 0
scalar SingleCell.eNB.cellularNic packetDropNoCarrier:sum(packetBytes) 0
scalar SingleCell.eNB.pppIf.queue queueLength:last 0
scalar SingleCell.eNB.pppIf.queue queueLength:max 4
scalar SingleCell.eNB.pppIf.queue queueLength:timeavg 3.1337519999998961e-05
scalar SingleCell.eNB.pppIf.queue queueBitLength:last 0
scalar SingleCell.eNB.pppIf.queue queueBitLength:max 3328
scalar SingleCell.eNB.pppIf.queue queueBitLength:timeavg 0.026072816639998296
scalar SingleCell.eNB.pppIf.queue outgoingPackets:count 17712
scalar SingleCell.eNB.pppIf.queue outgoingPacketLengths:sum 14736384
scalar SingleCell.eNB.pppIf.queue incomingPackets:count 17712
scalar SingleCell.eNB.pppIf.queue incomingPacketLengths:sum 14736384
scalar SingleCell.eNB.pppIf.queue droppedPacketsQueueOverflow:count 0
scalar SingleCell.eNB.pppIf.queue droppedPacketLengthsQueueOverflow:sum 0
scalar SingleCell.eNB.pppIf.ppp transmissionState:timeavg 7.8641279999980648e-05
scalar SingleCell.eNB.pppIf.ppp rxPkOk:count 16888
scalar SingleCell.eNB.pppIf.ppp rxPkOk:sum(packetBytes) 1874568
scalar SingleCell.eNB.pppIf.ppp txPk:count 17712
scalar SingleCell.eNB.pppIf.ppp txPk:sum(packetBytes) 1966032
scalar SingleCell.eNB.pppIf.ppp rcvdPkFromHl:count 17712
scalar SingleCell.eNB.pppIf.ppp rcvdPkFromHl:sum(packetBytes) 1842048
scalar SingleCell.eNB.pppIf.ppp passedUpPk:count 16888
scalar SingleCell.eNB.pppIf.ppp passedUpPk:sum(packetBytes) 1756352
scalar SingleCell.eNB.pppIf.ppp packetDropIncorrectlyReceived:count 0
scalar SingleCell.eNB.pppIf.ppp packetDropIncorrectlyReceived:sum(packetBytes) 0
scalar SingleCell.eNB.pppIf.ppp packetDropInterfaceDown:count 0
scalar SingleCell.eNB.pppIf.ppp packetDropInterfaceDown:sum(packetBytes) 0
scalar SingleCell.eNB.pppIf packetDropInterfaceDown:count 0
scalar SingleCell.eNB.pppIf packetDropInterfaceDown:sum(packetBytes) 0
scalar SingleCell.eNB.pppIf packetDropNoCarrier:count 0
scalar SingleCell.eNB.pppIf packetDropNoCarrier:sum(packetBytes) 0
scalar SingleCell.eNB.pppMEHostIf.queue queueLength:last 0
scalar SingleCell.eNB.pppMEHostIf.queue queueLength:max 0
scalar SingleCell.eNB.pppMEHostIf.queue queueLength:timeavg 0
scalar SingleCell.eNB.pppMEHostIf.queue queueBitLength:last 0
scalar SingleCell.eNB.pppMEHostIf.queue queueBitLength:max 0
scalar SingleCell.eNB.pppMEHostIf.queue queueBitLength:timeavg 0
scalar SingleCell.eNB.pppMEHostIf.queue outgoingPackets:count 0
scalar SingleCell.eNB.pppMEHostIf.queue outgoingPacketLengths:sum 0
scalar SingleCell.eNB.pppMEHostIf.queue incomingPackets:count 0
scalar SingleCell.eNB.pppMEHostIf.queue incomingPacketLengths:sum 0
scalar SingleCell.eNB.pppMEHostIf.queue droppedPacketsQueueOverflow:count 0
scalar SingleCell.eNB.pppMEHostIf.queue droppedPacketLengthsQueueOverflow:sum 0
scalar SingleCell.eNB.pppMEHostIf.ppp transmissionState:timeavg 0
scalar SingleCell.eNB.pppMEHostIf.ppp rxPkOk:count 0
scalar SingleCell.eNB.pppMEHostIf.ppp rxPkOk:sum(packetBytes) 0
scalar SingleCell.eNB.pppMEHostIf.ppp txPk:count 0
scalar SingleCell.eNB.pppMEHostIf.ppp txPk:sum(packetBytes) 0
scalar SingleCell.eNB.pppMEHostIf.ppp rcvdPkFromHl:count 0
scalar SingleCell.eNB.pppMEHostIf.ppp rcvdPkFromHl:sum(packetBytes) 0
scalar SingleCell.eNB.pppMEHostIf.ppp passedUpPk:count 0
scalar SingleCell.eNB.pppMEHostIf.ppp passedUpPk:sum(packetBytes) 0
scalar SingleCell.eNB.pppMEHostIf.ppp packetDropIncorrectlyReceived:count 0
scalar SingleCell.eNB.pppMEHostIf.ppp packetDropIncorrectlyReceived:sum(packetBytes) 0
scalar SingleCell.eNB.pppMEHostIf.ppp packetDropInterfaceDown:count 0
scalar SingleCell.eNB.pppMEHostIf.ppp packetDropInterfaceDown:sum(packetBytes) 0
scalar SingleCell.eNB.pppMEHostIf packetDropInterfaceDown:count 0
scalar SingleCell.eNB.pppMEHostIf packetDropInterfaceDown:sum(packetBytes) 0
scalar SingleCell.eNB.pppMEHostIf packetDropNoCarrier:count 0
scalar SingleCell.eNB.pppMEHostIf packetDropNoCarrier:sum(packetBytes) 0
scalar SingleCell.eNB.ipv4.ip packetDropAddressResolutionFailed:count 0
scalar SingleCell.eNB.ipv4.ip packetDropAddressResolutionFailed:sum(packetBytes) 0
scalar SingleCell.eNB.ipv4.ip packetDropHopLimitReached:count 0
scalar SingleCell.eNB.ipv4.ip packetDropHopLimitReached:sum(packetBytes) 0
scalar SingleCell.eNB.ipv4.ip packetDropForwardingDisabled:count 0
scalar SingleCell.eNB.ipv4.ip packetDropForwardingDisabled:sum(packetBytes) 0
scalar SingleCell.eNB.ipv4.ip packetDropNoInterfaceFound:count 0
scalar SingleCell.eNB.ipv4.ip packetDropNoInterfaceFound:sum(packetBytes) 0
scalar SingleCell.eNB.ipv4.ip packetDropNoRouteFound:count 0
scalar SingleCell.eNB.ipv4.ip packetDropNoRouteFound:sum(packetBytes) 0
scalar SingleCell.eNB.ipv4.ip packetDropUndefined:count 0
scalar SingleCell.eNB.ipv4.ip packetDropUndefined:sum(packetBytes) 0
scalar SingleCell.eNB.ipv4.arp arpResolutionFailed:count 0
scalar SingleCell.eNB.ipv4.arp arpResolutionCompleted:count 0
scalar SingleCell.eNB.ipv4.arp arpResolutionInitiated:count 0
scalar SingleCell.eNB.ipv4.arp arpReplySent:count 0
scalar SingleCell.eNB.ipv4.arp arpReplySent:sum(packetBytes) 0
scalar SingleCell.eNB.ipv4.arp arpRequestSent:count 0
scalar SingleCell.eNB.ipv4.arp arpRequestSent:sum(packetBytes) 0
scalar SingleCell.eNB.udp packetReceived:count 16888
scalar SingleCell.eNB.udp packetReceived:sum(packetBytes) 1418592
scalar SingleCell.eNB.udp packetSent:count 17712
scalar SingleCell.eNB.udp packetSent:sum(packetBytes) 1487808
scalar SingleCell.eNB.udp passedUpPk:count 16888
scalar SingleCell.eNB.udp droppedPkWrongPort:count 0
scalar SingleCell.eNB.udp droppedPkBadChecksum:count 0
scalar SingleCell.ue[0].lo[0].lo rcvdPkFromHl:count 0
scalar SingleCell.ue[0].lo[0].lo rcvdPkFromHl:sum(packetBytes) 0
scalar SingleCell.ue[0].lo[0].lo passedUpPk:count 0
scalar SingleCell.ue[0].lo[0].lo passedUpPk:sum(packetBytes) 0
scalar SingleCell.ue[0].lo[0] packetDropInterfaceDown:count 0
scalar SingleCell.ue[0].lo[0] packetDropInterfaceDown:sum(packetBytes) 0
scalar SingleCell.ue[0].lo[0] packetDropNoCarrier:count 0
scalar SingleCell.ue[0].lo[0] packetDropNoCarrier:sum(packetBytes) 0
scalar SingleCell.ue[0].cellularNic.pdcp sentPacketToLowerLayer:count 624
scalar SingleCell.ue[0].cellularNic.pdcp sentPacketToLowerLayer:sum(packetBytes) 43056
scalar SingleCell.ue[0].cellularNic.pdcp sentPacketToUpperLayer:count 660
scalar SingleCell.ue[0].cellularNic.pdcp sentPacketToUpperLayer:sum(packetBytes) 44880
scalar SingleCell.ue[0].cellularNic.pdcp receivedPacketFromLowerLayer:count 660
scalar SingleCell.ue[0].cellularNic.pdcp receivedPacketFromLowerLayer:sum(packetBytes) 45540
scalar SingleCell.ue[0].cellularNic.pdcp receivedPacketFromUpperLayer:count 624
scalar SingleCell.ue[0].cellularNic.pdcp receivedPacketFromUpperLayer:sum(packetBytes) 42432
scalar SingleCell.ue[0].cellularNic.rlc.tm rlcPacketLossUl:mean -nan
scalar SingleCell.ue[0].cellularNic.rlc.tm rlcPacketLossUl:sum 0
scalar SingleCell.ue[0].cellularNic.rlc.tm rlcPacketLossDl:mean -nan
scalar SingleCell.ue[0].cellularNic.rlc.tm rlcPacketLossDl:sum 0
scalar SingleCell.ue[0].cellularNic.rlc.tm sentPacketToLowerLayer:count 0
scalar SingleCell.ue[0].cellularNic.rlc.tm sentPacketToLowerLayer:sum(packetBytes) 0
scalar SingleCell.ue[0].cellularNic.rlc.tm sentPacketToUpperLayer:count 0
scalar SingleCell.ue[0].cellularNic.rlc.tm sentPacketToUpperLayer:sum(packetBytes) 0
scalar SingleCell.ue[0].cellularNic.rlc.tm receivedPacketFromLowerLayer:count 0
scalar SingleCell.ue[0].cellularNic.rlc.tm receivedPacketFromLowerLayer:sum(packetBytes) 0
scalar SingleCell.ue[0].cellularNic.rlc.tm receivedPacketFromUpperLayer:count 0
scalar SingleCell.ue[0].cellularNic.rlc.tm receivedPacketFromUpperLayer:sum(packetBytes) 0
scalar SingleCell.ue[0].cellularNic.rlc.um rlcCellThroughputUl:simu5g_rateavg -nan
scalar SingleCell.ue[0].cellularNic.rlc.um rlcCellThroughputDl:simu5g_rateavg -nan
scalar SingleCell.ue[0].cellularNic.rlc.um rlcPduThroughputUl:simu5g_rateavg 0
scalar SingleCell.ue[0].cellularNic.rlc.um rlcPduThroughputDl:simu5g_rateavg 0
scalar SingleCell.ue[0].cellularNic.rlc.um rlcPduDelayUl:mean 0.0040000000000000027
scalar SingleCell.ue[0].cellularNic.rlc.um rlcPduDelayDl:mean 0.0040000000000000027
scalar SingleCell.ue[0].cellularNic.rlc.um rlcThroughputUl:simu5g_rateavg 1821.91654606476
scalar SingleCell.ue[0].cellularNic.rlc.um rlcThroughputDl:simu5g_rateavg 2486.5785145191717
scalar SingleCell.ue[0].cellularNic.rlc.um rlcDelayUl:mean 0.0087256858355080208
scalar SingleCell.ue[0].cellularNic.rlc.um rlcDelayDl:mean 0.0045189747892833403
scalar SingleCell.ue[0].cellularNic.rlc.um sentPacketToLowerLayer:count 624
scalar SingleCell.ue[0].cellularNic.rlc.um sentPacketToLowerLayer:sum(packetBytes) 44304
scalar SingleCell.ue[0].cellularNic.rlc.um sentPacketToUpperLayer:count 660
scalar SingleCell.ue[0].cellularNic.rlc.um sentPacketToUpperLayer:sum(packetBytes) 45540
scalar SingleCell.ue[0].cellularNic.rlc.um receivedPacketFromLowerLayer:count 660
scalar SingleCell.ue[0].cellularNic.rlc.um receivedPacketFromLowerLayer:sum(packetBytes) 46860
scalar SingleCell.ue[0].cellularNic.rlc.um receivedPacketFromUpperLayer:count 624
scalar SingleCell.ue[0].cellularNic.rlc.um receivedPacketFromUpperLayer:sum(packetBytes) 43056
scalar SingleCell.ue[0].cellularNic.rlc.am rlcPacketLossTotal:mean -nan
scalar SingleCell.ue[0].cellularNic.rlc.am rlcCellThroughputUl:simu5g_rateavg -nan
scalar SingleCell.ue[0].cellularNic.rlc.am rlcCellThroughputDl:simu5g_rateavg -nan
scalar SingleCell.ue[0].cellularNic.rlc.am rlcPduThroughputUl:simu5g_rateavg -nan
scalar SingleCell.ue[0].cellularNic.rlc.am rlcPduThroughputDl:simu5g_rateavg -nan
scalar SingleCell.ue[0].cellularNic.rlc.am rlcPduDelayUl:mean -nan
scalar SingleCell.ue[0].cellularNic.rlc.am rlcPduDelayDl:mean -nan
scalar SingleCell.ue[0].cellularNic.rlc.am rlcThroughputUl:simu5g_rateavg -nan
scalar SingleCell.ue[0].cellularNic.rlc.am rlcThroughputDl:simu5g_rateavg -nan
scalar SingleCell.ue[0].cellularNic.rlc.am rlcDelayUl:mean -nan
scalar SingleCell.ue[0].cellularNic.rlc.am rlcDelayDl:mean -nan
scalar SingleCell.ue[0].cellularNic.rlc.am rlcPduPacketLossUl:mean -nan
scalar SingleCell.ue[0].cellularNic.rlc.am rlcPduPacketLossDl:mean -nan
scalar SingleCell.ue[0].cellularNic.rlc.am rlcPacketLossUl:mean -nan
scalar SingleCell.ue[0].cellularNic.rlc.am rlcPacketLossDl:mean -nan
scalar SingleCell.ue[0].cellularNic.rlc.am rlcCellPacketLossUl:mean -nan
scalar SingleCell.ue[0].cellularNic.rlc.am rlcCellPacketLossDl:mean -nan
scalar SingleCell.ue[0].cellularNic.mac harqTxAttemptsUl:mean 1
scalar SingleCell.ue[0].cellularNic.mac harqTxAttemptsDl:mean 1
scalar SingleCell.ue[0].cellularNic.mac harqErrorRate_4th_Ul:mean -nan
scalar SingleCell.ue[0].cellularNic.mac harqErrorRate_4th_Dl:mean -nan
scalar SingleCell.ue[0].cellularNic.mac harqErrorRate_3rd_Ul:mean -nan
scalar SingleCell.ue[0].cellularNic.mac harqErrorRate_3rd_Dl:mean -nan
scalar SingleCell.ue[0].cellularNic.mac harqErrorRate_2nd_Ul:mean -nan
scalar SingleCell.ue[0].cellularNic.mac harqErrorRate_2nd_Dl:mean -nan
scalar SingleCell.ue[0].cellularNic.mac harqErrorRate_1st_Ul:mean 0
scalar SingleCell.ue[0].cellularNic.mac harqErrorRate_1st_Dl:mean 0
scalar SingleCell.ue[0].cellularNic.mac harqErrorRateUl:mean 0
scalar SingleCell.ue[0].cellularNic.mac harqErrorRateDl:mean 0
scalar SingleCell.ue[0].cellularNic.mac macCellPacketLossUl:mean -nan
scalar SingleCell.ue[0].cellularNic.mac macCellPacketLossDl:mean -nan
scalar SingleCell.ue[0].cellularNic.mac macPacketLossUl:mean 0
scalar SingleCell.ue[0].cellularNic.mac macPacketLossDl:mean 0
scalar SingleCell.ue[0].cellularNic.mac macThroughputUl:simu5g_rateavg 1927.5402911521689
scalar SingleCell.ue[0].cellularNic.mac macThroughputDl:simu5g_rateavg 2630.7279936217342
scalar SingleCell.ue[0].cellularNic.mac macDelayUl:mean 0.0040000000000000027
scalar SingleCell.ue[0].cellularNic.mac macDelayDl:mean 0.0040000000000000027
scalar SingleCell.ue[0].cellularNic.mac macCellThroughputUl:simu5g_rateavg -nan
scalar SingleCell.ue[0].cellularNic.mac macCellThroughputDl:simu5g_rateavg -nan
scalar SingleCell.ue[0].cellularNic.mac sentPacketToLowerLayer:count 1917
scalar SingleCell.ue[0].cellularNic.mac sentPacketToLowerLayer:sum(packetBytes) 46845
scalar SingleCell.ue[0].cellularNic.mac sentPacketToUpperLayer:count 1284
scalar SingleCell.ue[0].cellularNic.mac sentPacketToUpperLayer:sum(packetBytes) 47484
scalar SingleCell.ue[0].cellularNic.mac receivedPacketFromLowerLayer:count 2541
scalar SingleCell.ue[0].cellularNic.mac receivedPacketFromLowerLayer:sum(packetBytes) 50061
scalar SingleCell.ue[0].cellularNic.mac receivedPacketFromUpperLayer:count 1248
scalar SingleCell.ue[0].cellularNic.mac receivedPacketFromUpperLayer:sum(packetBytes) 87360
scalar SingleCell.ue[0].cellularNic.mac macBufferOverFlowD2D:mean -nan
scalar SingleCell.ue[0].cellularNic.mac macBufferOverFlowUl:mean -nan
scalar SingleCell.ue[0].cellularNic.mac macBufferOverFlowDl:mean -nan
scalar SingleCell.ue[0].cellularNic.phy distance:mean -nan
scalar SingleCell.ue[0].cellularNic.phy averageCqiUl:mean 14
scalar SingleCell.ue[0].cellularNic.phy averageCqiUl:count 624
scalar SingleCell.ue[0].cellularNic.phy averageCqiDl:mean 15
scalar SingleCell.ue[0].cellularNic.phy averageCqiDl:count 660
scalar SingleCell.ue[0].cellularNic.channelModel[0] measuredSinrUl:mean 44.246976017615005
scalar SingleCell.ue[0].cellularNic.channelModel[0] measuredSinrDl:mean 63.832697989448064
scalar SingleCell.ue[0].cellularNic.channelModel[0] rcvdSinrD2D:mean -nan
scalar SingleCell.ue[0].cellularNic.channelModel[0] rcvdSinrUl:mean 45.238454095048098
scalar SingleCell.ue[0].cellularNic.channelModel[0] rcvdSinrDl:mean 66.546069577163749
scalar SingleCell.ue[0].cellularNic packetDropInterfaceDown:count 0
scalar SingleCell.ue[0].cellularNic packetDropInterfaceDown:sum(packetBytes) 0
scalar SingleCell.ue[0].cellularNic packetDropNoCarrier:count 0
scalar SingleCell.ue[0].cellularNic packetDropNoCarrier:sum(packetBytes) 0
scalar SingleCell.ue[0].encap pauseSent:count 0
scalar SingleCell.ue[0].encap pauseSent:sum 0
scalar SingleCell.ue[0].encap decapPk:count 0
scalar SingleCell.ue[0].encap decapPk:sum(packetBytes) 0
scalar SingleCell.ue[0].encap encapPk:count 0
scalar SingleCell.ue[0].encap encapPk:sum(packetBytes) 0
scalar SingleCell.ue[0].ipv4.ip packetDropAddressResolutionFailed:count 0
scalar SingleCell.ue[0].ipv4.ip packetDropAddressResolutionFailed:sum(packetBytes) 0
scalar SingleCell.ue[0].ipv4.ip packetDropHopLimitReached:count 0
scalar SingleCell.ue[0].ipv4.ip packetDropHopLimitReached:sum(packetBytes) 0
scalar SingleCell.ue[0].ipv4.ip packetDropForwardingDisabled:count 0
scalar SingleCell.ue[0].ipv4.ip packetDropForwardingDisabled:sum(packetBytes) 0
scalar SingleCell.ue[0].ipv4.ip packetDropNoInterfaceFound:count 0
scalar SingleCell.ue[0].ipv4.ip packetDropNoInterfaceFound:sum(packetBytes) 0
scalar SingleCell.ue[0].ipv4.ip packetDropNoRouteFound:count 0
scalar SingleCell.ue[0].ipv4.ip packetDropNoRouteFound:sum(packetBytes) 0
scalar SingleCell.ue[0].ipv4.ip packetDropUndefined:count 0
scalar SingleCell.ue[0].ipv4.ip packetDropUndefined:sum(packetBytes) 0
scalar SingleCell.ue[0].ipv4.arp arpResolutionFailed:count 0
scalar SingleCell.ue[0].ipv4.arp arpResolutionCompleted:count 0
scalar SingleCell.ue[0].ipv4.arp arpResolutionInitiated:count 0
scalar SingleCell.ue[0].ipv4.arp arpReplySent:count 0
scalar SingleCell.ue[0].ipv4.arp arpReplySent:sum(packetBytes) 0
scalar SingleCell.ue[0].ipv4.arp arpRequestSent:count 0
scalar SingleCell.ue[0].ipv4.arp arpRequestSent:sum(packetBytes) 0
scalar SingleCell.ue[0].udp packetReceived:count 660
scalar SingleCell.ue[0].udp packetReceived:sum(packetBytes) 31680
scalar SingleCell.ue[0].udp packetSent:count 624
scalar SingleCell.ue[0].udp packetSent:sum(packetBytes) 29952
scalar SingleCell.ue[0].udp passedUpPk:count 660
scalar SingleCell.ue[0].udp droppedPkWrongPort:count 0
scalar SingleCell.ue[0].udp droppedPkBadChecksum:count 0
scalar SingleCell.ue[0].app[0] voipReceivedThroughput:simu5g_rateavg 1441.494791025606
scalar SingleCell.ue[0].app[0] voipPlayoutLoss:mean 0
scalar SingleCell.ue[0].app[0] voipJitter:mean -nan
scalar SingleCell.ue[0].app[0] voipTaildropLoss:mean 0
scalar SingleCell.ue[0].app[0] voipMos:mean 4.4092858240000004
scalar SingleCell.ue[0].app[0] voipFrameDelay:mean 0.0045193335892833092
scalar SingleCell.ue[0].app[0] voipFrameLoss:mean 0
scalar SingleCell.ue[0].app[0] voipPlayoutDelay:mean 0
scalar SingleCell.ue[0].app[1] voipGeneratedThroughput:simu5g_rateavg 1062.3466233540544
scalar SingleCell.ue[1].lo[0].lo rcvdPkFromHl:count 0
scalar SingleCell.ue[1].lo[0].lo rcvdPkFromHl:sum(packetBytes) 0
scalar SingleCell.ue[1].lo[0].lo passedUpPk:count 0
scalar SingleCell.ue[1].lo[0].lo passedUpPk:sum(packetBytes) 0
scalar SingleCell.ue[1].lo[0] packetDropInterfaceDown:count 0
scalar SingleCell.ue[1].lo[0] packetDropInterfaceDown:sum(packetBytes) 0
scalar SingleCell.ue[1].lo[0] packetDropNoCarrier:count 0
scalar SingleCell.ue[1].lo[0] packetDropNoCarrier:sum(packetBytes) 0
scalar SingleCell.ue[1].cellularNic.pdcp sentPacketToLowerLayer:count 598
scalar SingleCell.ue[1].cellularNic.pdcp sentPacketToLowerLayer:sum(packetBytes) 41262
scalar SingleCell.ue[1].cellularNic.pdcp sentPacketToUpperLayer:count 528
scalar SingleCell.ue[1].cellularNic.pdcp sentPacketToUpperLayer:sum(packetBytes) 35904
scalar SingleCell.ue[1].cellularNic.pdcp receivedPacketFromLowerLayer:count 528
scalar SingleCell.ue[1].cellularNic.pdcp receivedPacketFromLowerLayer:sum(packetBytes) 36432
scalar SingleCell.ue[1].cellularNic.pdcp receivedPacketFromUpperLayer:count 598
scalar SingleCell.ue[1].cellularNic.pdcp receivedPacketFromUpperLayer:sum(packetBytes) 40664
scalar SingleCell.ue[1].cellularNic.rlc.tm rlcPacketLossUl:mean -nan
scalar SingleCell.ue[1].cellularNic.rlc.tm rlcPacketLossUl:sum 0
scalar SingleCell.ue[1].cellularNic.rlc.tm rlcPacketLossDl:mean -nan
scalar SingleCell.ue[1].cellularNic.rlc.tm rlcPacketLossDl:sum 0
scalar SingleCell.ue[1].cellularNic.rlc.tm sentPacketToLowerLayer:count 0
scalar SingleCell.ue[1].cellularNic.rlc.tm sentPacketToLowerLayer:sum(packetBytes) 0
scalar SingleCell.ue[1].cellularNic.rlc.tm sentPacketToUpperLayer:count 0
scalar SingleCell.ue[1].cellularNic.rlc.tm sentPacketToUpperLayer:sum(packetBytes) 0
scalar SingleCell.ue[1].cellularNic.rlc.tm receivedPacketFromLowerLayer:count 0
scalar SingleCell.ue[1].cellularNic.rlc.tm receivedPacketFromLowerLayer:sum(packetBytes) 0
scalar SingleCell.ue[1].cellularNic.rlc.tm receivedPacketFromUpperLayer:count 0
scalar SingleCell.ue[1].cellularNic.rlc.tm receivedPacketFromUpperLayer:sum(packetBytes) 0
scalar SingleCell.ue[1].cellularNic.rlc.um rlcCellThroughputUl:simu5g_rateavg -nan
scalar SingleCell.ue[1].cellularNic.rlc.um rlcCellThroughputDl:simu5g_rateavg -nan
scalar SingleCell.ue[1].cellularNic.rlc.um rlcPduThroughputUl:simu5g_rateavg 0
scalar SingleCell.ue[1].cellularNic.rlc.um rlcPduThroughputDl:simu5g_rateavg 0
scalar SingleCell.ue[1].cellularNic.rlc.um rlcPduDelayUl:mean 0.0040000000000000027
scalar SingleCell.ue[1].cellularNic.rlc.um rlcPduDelayDl:mean 0.0040000000000000027
scalar SingleCell.ue[1].cellularNic.rlc.um rlcThroughputUl:simu5g_rateavg 2110.9462238839892
scalar SingleCell.ue[1].cellularNic.rlc.um rlcThroughputDl:simu5g_rateavg 1378.8543435977322
scalar SingleCell.ue[1].cellularNic.rlc.um rlcDelayUl:mean 0.0086489876580384314
scalar SingleCell.ue[1].cellularNic.rlc.um rlcDelayDl:mean 0.0044264504127859714
scalar SingleCell.ue[1].cellularNic.rlc.um sentPacketToLowerLayer:count 598
scalar SingleCell.ue[1].cellularNic.rlc.um sentPacketToLowerLayer:sum(packetBytes) 42458
scalar SingleCell.ue[1].cellularNic.rlc.um sentPacketToUpperLayer:count 528
scalar SingleCell.ue[1].cellularNic.rlc.um sentPacketToUpperLayer:sum(packetBytes) 36432
scalar SingleCell.ue[1].cellularNic.rlc.um receivedPacketFromLowerLayer:count 528
scalar SingleCell.ue[1].cellularNic.rlc.um receivedPacketFromLowerLayer:sum(packetBytes) 37488
scalar SingleCell.ue[1].cellularNic.rlc.um receivedPacketFromUpperLayer:count 598
scalar SingleCell.ue[1].cellularNic.rlc.um receivedPacketFromUpperLayer:sum(packetBytes) 41262
scalar SingleCell.ue[1].cellularNic.rlc.am rlcPacketLossTotal:mean -nan
scalar SingleCell.ue[1].cellularNic.rlc.am rlcCellThroughputUl:simu5g_rateavg -nan
scalar SingleCell.ue[1].cellularNic.rlc.am rlcCellThroughputDl:simu5g_rateavg -nan
scalar SingleCell.ue[1].cellularNic.rlc.am rlcPduThroughputUl:simu5g_rateavg -nan
scalar SingleCell.ue[1].cellularNic.rlc.am rlcPduThroughputDl:simu5g_rateavg -nan
scalar SingleCell.ue[1].cellularNic.rlc.am rlcPduDelayUl:mean -nan
scalar SingleCell.ue[1].cellularNic.rlc.am rlcPduDelayDl:mean -nan
scalar SingleCell.ue[1].cellularNic.rlc.am rlcThroughputUl:simu5g_rateavg -nan
scalar SingleCell.ue[1].cellularNic.rlc.am rlcThroughputDl:simu5g_rateavg -nan
scalar SingleCell.ue[1].cellularNic.rlc.am rlcDelayUl:mean -nan
scalar SingleCell.ue[1].cellularNic.rlc.am rlcDelayDl:mean -nan
scalar SingleCell.ue[1].cellularNic.rlc.am rlcPduPacketLossUl:mean -nan
scalar SingleCell.ue[1].cellularNic.rlc.am rlcPduPacketLossDl:mean -nan
scalar SingleCell.ue[1].cellularNic.rlc.am rlcPacketLossUl:mean -nan
scalar SingleCell.ue[1].cellularNic.rlc.am rlcPacketLossDl:mean -nan
scalar SingleCell.ue[1].cellularNic.rlc.am rlcCellPacketLossUl:mean -nan
scalar SingleCell.ue[1].cellularNic.rlc.am rlcCellPacketLossDl:mean -nan
scalar SingleCell.ue[1].cellularNic.mac harqTxAttemptsUl:mean 1
scalar SingleCell.ue[1].cellularNic.mac harqTxAttemptsDl:mean 1
scalar SingleCell.ue[1].cellularNic.mac harqErrorRate_4th_Ul:mean -nan
scalar SingleCell.ue[1].cellularNic.mac harqErrorRate_4th_Dl:mean -nan
scalar SingleCell.ue[1].cellularNic.mac harqErrorRate_3rd_Ul:mean -nan
scalar SingleCell.ue[1].cellularNic.mac harqErrorRate_3rd_Dl:mean -nan
scalar SingleCell.ue[1].cellularNic.mac harqErrorRate_2nd_Ul:mean -nan
scalar SingleCell.ue[1].cellularNic.mac harqErrorRate_2nd_Dl:mean -nan
scalar SingleCell.ue[1].cellularNic.mac harqErrorRate_1st_Ul:mean 0
scalar SingleCell.ue[1].cellularNic.mac harqErrorRate_1st_Dl:mean 0
scalar SingleCell.ue[1].cellularNic.mac harqErrorRateUl:mean 0
scalar SingleCell.ue[1].cellularNic.mac harqErrorRateDl:mean 0
scalar SingleCell.ue[1].cellularNic.mac macCellPacketLossUl:mean -nan
scalar SingleCell.ue[1].cellularNic.mac macCellPacketLossDl:mean -nan
scalar SingleCell.ue[1].cellularNic.mac macPacketLossUl:mean 0
scalar SingleCell.ue[1].cellularNic.mac macPacketLossDl:mean 0
scalar SingleCell.ue[1].cellularNic.mac macThroughputUl:simu5g_rateavg 2233.3734610164975
scalar SingleCell.ue[1].cellularNic.mac macThroughputDl:simu5g_rateavg 1458.7879287338335
scalar SingleCell.ue[1].cellularNic.mac macDelayUl:mean 0.0040000000000000027
scalar SingleCell.ue[1].cellularNic.mac macDelayDl:mean 0.0040000000000000027
scalar SingleCell.ue[1].cellularNic.mac macCellThroughputUl:simu5g_rateavg -nan
scalar SingleCell.ue[1].cellularNic.mac macCellThroughputDl:simu5g_rateavg -nan
scalar SingleCell.ue[1].cellularNic.mac sentPacketToLowerLayer:count 1731
scalar SingleCell.ue[1].cellularNic.mac sentPacketToLowerLayer:sum(packetBytes) 44787
scalar SingleCell.ue[1].cellularNic.mac sentPacketToUpperLayer:count 1126
scalar SingleCell.ue[1].cellularNic.mac sentPacketToUpperLayer:sum(packetBytes) 38086
scalar SingleCell.ue[1].cellularNic.mac receivedPacketFromLowerLayer:count 2330
scalar SingleCell.ue[1].cellularNic.mac receivedPacketFromLowerLayer:sum(packetBytes) 40418
scalar SingleCell.ue[1].cellularNic.mac receivedPacketFromUpperLayer:count 1196
scalar SingleCell.ue[1].cellularNic.mac receivedPacketFromUpperLayer:sum(packetBytes) 83720
scalar SingleCell.ue[1].cellularNic.mac macBufferOverFlowD2D:mean -nan
scalar SingleCell.ue[1].cellularNic.mac macBufferOverFlowUl:mean -nan
scalar SingleCell.ue[1].cellularNic.mac macBufferOverFlowDl:mean -nan
scalar SingleCell.ue[1].cellularNic.phy distance:mean -nan
scalar SingleCell.ue[1].cellularNic.phy averageCqiUl:mean 15
scalar SingleCell.ue[1].cellularNic.phy averageCqiUl:count 598
scalar SingleCell.ue[1].cellularNic.phy averageCqiDl:mean 15
scalar SingleCell.ue[1].cellularNic.phy averageCqiDl:count 529
scalar SingleCell.ue[1].cellularNic.channelModel[0] measuredSinrUl:mean 44.382413613415949
scalar SingleCell.ue[1].cellularNic.channelModel[0] measuredSinrDl:mean 67.067679918722021
scalar SingleCell.ue[1].cellularNic.channelModel[0] rcvdSinrD2D:mean -nan
scalar SingleCell.ue[1].cellularNic.channelModel[0] rcvdSinrUl:mean 45.126959900367709
scalar SingleCell.ue[1].cellularNic.channelModel[0] rcvdSinrDl:mean 67.942169863650747
scalar SingleCell.ue[1].cellularNic packetDropInterfaceDown:count 0
scalar SingleCell.ue[1].cellularNic packetDropInterfaceDown:sum(packetBytes) 0
scalar SingleCell.ue[1].cellularNic packetDropNoCarrier:count 0
scalar SingleCell.ue[1].cellularNic packetDropNoCarrier:sum(packetBytes) 0
scalar SingleCell.ue[1].encap pauseSent:count 0
scalar SingleCell.ue[1].encap pauseSent:sum 0
scalar SingleCell.ue[1].encap decapPk:count 0
scalar SingleCell.ue[1].encap decapPk:sum(packetBytes) 0
scalar SingleCell.ue[1].encap encapPk:count 0
scalar SingleCell.ue[1].encap encapPk:sum(packetBytes) 0
scalar SingleCell.ue[1].ipv4.ip packetDropAddressResolutionFailed:count 0
scalar SingleCell.ue[1].ipv4.ip packetDropAddressResolutionFailed:sum(packetBytes) 0
scalar SingleCell.ue[1].ipv4.ip packetDropHopLimitReached:count 0
scalar SingleCell.ue[1].ipv4.ip packetDropHopLimitReached:sum(packetBytes) 0
scalar SingleCell.ue[1].ipv4.ip packetDropForwardingDisabled:count 0
scalar SingleCell.ue[1].ipv4.ip packetDropForwardingDisabled:sum(packetBytes) 0
scalar SingleCell.ue[1].ipv4.ip packetDropNoInterfaceFound:count 0
scalar SingleCell.ue[1].ipv4.ip packetDropNoInterfaceFound:sum(packetBytes) 0
scalar SingleCell.ue[1].ipv4.ip packetDropNoRouteFound:count 0
scalar SingleCell.ue[1].ipv4.ip packetDropNoRouteFound:sum(packetBytes) 0
scalar SingleCell.ue[1].ipv4.ip packetDropUndefined:count 0
scalar SingleCell.ue[1].ipv4.ip packetDropUndefined:sum(packetBytes) 0
scalar SingleCell.ue[1].ipv4.arp arpResolutionFailed:count 0
scalar SingleCell.ue[1].ipv4.arp arpResolutionCompleted:count 0
scalar SingleCell.ue[1].ipv4.arp arpResolutionInitiated:count 0
scalar SingleCell.ue[1].ipv4.arp arpReplySent:count 0
scalar SingleCell.ue[1].ipv4.arp arpReplySent:sum(packetBytes) 0
scalar SingleCell.ue[1].ipv4.arp arpRequestSent:count 0
scalar SingleCell.ue[1].ipv4.arp arpRequestSent:sum(packetBytes) 0
scalar SingleCell.ue[1].udp packetReceived:count 528
scalar SingleCell.ue[1].udp packetReceived:sum(packetBytes) 25344
scalar SingleCell.ue[1].udp packetSent:count 598
scalar SingleCell.ue[1].udp packetSent:sum(packetBytes) 28704
scalar SingleCell.ue[1].udp passedUpPk:count 528
scalar SingleCell.ue[1].udp droppedPkWrongPort:count 0
scalar SingleCell.ue[1].udp droppedPkBadChecksum:count 0
scalar SingleCell.ue[1].app[0] voipReceivedThroughput:simu5g_rateavg 799.33585136100476
scalar SingleCell.ue[1].app[0] voipPlayoutLoss:mean 0
scalar SingleCell.ue[1].app[0] voipJitter:mean -nan
scalar SingleCell.ue[1].app[0] voipTaildropLoss:mean 0
scalar SingleCell.ue[1].app[0] voipMos:mean 4.4092858240000004
scalar SingleCell.ue[1].app[0] voipFrameDelay:mean 0.0044268092127859706
scalar SingleCell.ue[1].app[0] voipFrameLoss:mean 0
scalar SingleCell.ue[1].app[0] voipPlayoutDelay:mean 0
scalar SingleCell.ue[1].app[1] voipGeneratedThroughput:simu5g_rateavg 1229.2099946089024
scalar SingleCell.ue[2].lo[0].lo rcvdPkFromHl:count 0
scalar SingleCell.ue[2].lo[0].lo rcvdPkFromHl:sum(packetBytes) 0
scalar SingleCell.ue[2].lo[0].lo passedUpPk:count 0
scalar SingleCell.ue[2].lo[0].lo passedUpPk:sum(packetBytes) 0
scalar SingleCell.ue[2].lo[0] packetDropInterfaceDown:count 0
scalar SingleCell.ue[2].lo[0] packetDropInterfaceDown:sum(packetBytes) 0
scalar SingleCell.ue[2].lo[0] packetDropNoCarrier:count 0
scalar SingleCell.ue[2].lo[0] packetDropNoCarrier:sum(packetBytes) 0
scalar SingleCell.ue[2].cellularNic.pdcp sentPacketToLowerLayer:count 874
scalar SingleCell.ue[2].cellularNic.pdcp sentPacketToLowerLayer:sum(packetBytes) 60306
scalar SingleCell.ue[2].cellularNic.pdcp sentPacketToUpperLayer:count 747
scalar SingleCell.ue[2].cellularNic.pdcp sentPacketToUpperLayer:sum(packetBytes) 50796
scalar SingleCell.ue[2].cellularNic.pdcp receivedPacketFromLowerLayer:count 747
scalar SingleCell.ue[2].cellularNic.pdcp receivedPacketFromLowerLayer:sum(packetBytes) 51543
scalar SingleCell.ue[2].cellularNic.pdcp receivedPacketFromUpperLayer:count 874
scalar SingleCell.ue[2].cellularNic.pdcp receivedPacketFromUpperLayer:sum(packetBytes) 59432
scalar SingleCell.ue[2].cellularNic.rlc.tm rlcPacketLossUl:mean -nan
scalar SingleCell.ue[2].cellularNic.rlc.tm rlcPacketLossUl:sum 0
scalar SingleCell.ue[2].cellularNic.rlc.tm rlcPacketLossDl:mean -nan
scalar SingleCell.ue[2].cellularNic.rlc.tm rlcPacketLossDl:sum 0
scalar SingleCell.ue[2].cellularNic.rlc.tm sentPacketToLowerLayer:count 0
scalar SingleCell.ue[2].cellularNic.rlc.tm sentPacketToLowerLayer:sum(packetBytes) 0
scalar SingleCell.ue[2].cellularNic.rlc.tm sentPacketToUpperLayer:count 0
scalar SingleCell.ue[2].cellularNic.rlc.tm sentPacketToUpperLayer:sum(packetBytes) 0
scalar SingleCell.ue[2].cellularNic.rlc.tm receivedPacketFromLowerLayer:count 0
scalar SingleCell.ue[2].cellularNic.rlc.tm receivedPacketFromLowerLayer:sum(packetBytes) 0
scalar SingleCell.ue[2].cellularNic.rlc.tm receivedPacketFromUpperLayer:count 0
scalar SingleCell.ue[2].cellularNic.rlc.tm receivedPacketFromUpperLayer:sum(packetBytes) 0
scalar SingleCell.ue[2].cellularNic.rlc.um rlcCellThroughputUl:simu5g_rateavg -nan
scalar SingleCell.ue[2].cellularNic.rlc.um rlcCellThroughputDl:simu5g_rateavg -nan
scalar SingleCell.ue[2].cellularNic.rlc.um rlcPduThroughputUl:simu5g_rateavg 0
scalar SingleCell.ue[2].cellularNic.rlc.um rlcPduThroughputDl:simu5g_rateavg 0
scalar SingleCell.ue[2].cellularNic.rlc.um rlcPduDelayUl:mean 0.0040000000000000027
scalar SingleCell.ue[2].cellularNic.rlc.um rlcPduDelayDl:mean 0.0040000000000000027
scalar SingleCell.ue[2].cellularNic.rlc.um rlcThroughputUl:simu5g_rateavg 3249.9212269510131
scalar SingleCell.ue[2].cellularNic.rlc.um rlcThroughputDl:simu5g_rateavg 2292.1337272077699
scalar SingleCell.ue[2].cellularNic.rlc.um rlcDelayUl:mean 0.0086922284071099046
scalar SingleCell.ue[2].cellularNic.rlc.um rlcDelayDl:mean 0.0043987641310642327
scalar SingleCell.ue[2].cellularNic.rlc.um sentPacketToLowerLayer:count 873
scalar SingleCell.ue[2].cellularNic.rlc.um sentPacketToLowerLayer:sum(packetBytes) 61983
scalar SingleCell.ue[2].cellularNic.rlc.um sentPacketToUpperLayer:count 747
scalar SingleCell.ue[2].cellularNic.rlc.um sentPacketToUpperLayer:sum(packetBytes) 51543
scalar SingleCell.ue[2].cellularNic.rlc.um receivedPacketFromLowerLayer:count 747
scalar SingleCell.ue[2].cellularNic.rlc.um receivedPacketFromLowerLayer:sum(packetBytes) 53037
scalar SingleCell.ue[2].cellularNic.rlc.um receivedPacketFromUpperLayer:count 874
scalar SingleCell.ue[2].cellularNic.rlc.um receivedPacketFromUpperLayer:sum(packetBytes) 60306
scalar SingleCell.ue[2].cellularNic.rlc.am rlcPacketLossTotal:mean -nan
scalar SingleCell.ue[2].cellularNic.rlc.am rlcCellThroughputUl:simu5g_rateavg -nan
scalar SingleCell.ue[2].cellularNic.rlc.am rlcCellThroughputDl:simu5g_rateavg -nan
scalar SingleCell.ue[2].cellularNic.rlc.am rlcPduThroughputUl:simu5g_rateavg -nan
scalar SingleCell.ue[2].cellularNic.rlc.am rlcPduThroughputDl:simu5g_rateavg -nan
scalar SingleCell.ue[2].cellularNic.rlc.am rlcPduDelayUl:mean -nan
scalar SingleCell.ue[2].cellularNic.rlc.am rlcPduDelayDl:mean -nan
scalar SingleCell.ue[2].cellularNic.rlc.am rlcThroughputUl:simu5g_rateavg -nan
scalar SingleCell.ue[2].cellularNic.rlc.am rlcThroughputDl:simu5g_rateavg -nan
scalar SingleCell.ue[2].cellularNic.rlc.am rlcDelayUl:mean -nan
scalar SingleCell.ue[2].cellularNic.rlc.am rlcDelayDl:mean -nan
scalar SingleCell.ue[2].cellularNic.rlc.am rlcPduPacketLossUl:mean -nan
scalar SingleCell.ue[2].cellularNic.rlc.am rlcPduPacketLossDl:mean -nan
scalar SingleCell.ue[2].cellularNic.rlc.am rlcPacketLossUl:mean -nan
scalar SingleCell.ue[2].cellularNic.rlc.am rlcPacketLossDl:mean -nan
scalar SingleCell.ue[2].cellularNic.rlc.am rlcCellPacketLossUl:mean -nan
scalar SingleCell.ue[2].cellularNic.rlc.am rlcCellPacketLossDl:mean -nan
scalar SingleCell.ue[2].cellularNic.mac harqTxAttemptsUl:mean 1
scalar SingleCell.ue[2].cellularNic.mac harqTxAttemptsDl:mean 1
scalar SingleCell.ue[2].cellularNic.mac harqErrorRate_4th_Ul:mean -nan
scalar SingleCell.ue[2].cellularNic.mac harqErrorRate_4th_Dl:mean -nan
scalar SingleCell.ue[2].cellularNic.mac harqErrorRate_3rd_Ul:mean -nan
scalar SingleCell.ue[2].cellularNic.mac harqErrorRate_3rd_Dl:mean -nan
scalar SingleCell.ue[2].cellularNic.mac harqErrorRate_2nd_Ul:mean -nan
scalar SingleCell.ue[2].cellularNic.mac harqErrorRate_2nd_Dl:mean -nan
scalar SingleCell.ue[2].cellularNic.mac harqErrorRate_1st_Ul:mean 0
scalar SingleCell.ue[2].cellularNic.mac harqErrorRate_1st_Dl:mean 0
scalar SingleCell.ue[2].cellularNic.mac harqErrorRateUl:mean 0
scalar SingleCell.ue[2].cellularNic.mac harqErrorRateDl:mean 0
scalar SingleCell.ue[2].cellularNic.mac macCellPacketLossUl:mean -nan
scalar SingleCell.ue[2].cellularNic.mac macCellPacketLossDl:mean -nan
scalar SingleCell.ue[2].cellularNic.mac macPacketLossUl:mean 0
scalar SingleCell.ue[2].cellularNic.mac macPacketLossDl:mean 0
scalar SingleCell.ue[2].cellularNic.mac macThroughputUl:simu5g_rateavg 3438.3892104688753
scalar SingleCell.ue[2].cellularNic.mac macThroughputDl:simu5g_rateavg 2425.0110447270636
scalar SingleCell.ue[2].cellularNic.mac macDelayUl:mean 0.0040000000000000027
scalar SingleCell.ue[2].cellularNic.mac macDelayDl:mean 0.0040000000000000027
scalar SingleCell.ue[2].cellularNic.mac macCellThroughputUl:simu5g_rateavg -nan
scalar SingleCell.ue[2].cellularNic.mac macCellThroughputDl:simu5g_rateavg -nan
scalar SingleCell.ue[2].cellularNic.mac sentPacketToLowerLayer:count 2496
scalar SingleCell.ue[2].cellularNic.mac sentPacketToLowerLayer:sum(packetBytes) 65352
scalar SingleCell.ue[2].cellularNic.mac sentPacketToUpperLayer:count 1620
scalar SingleCell.ue[2].cellularNic.mac sentPacketToUpperLayer:sum(packetBytes) 53910
scalar SingleCell.ue[2].cellularNic.mac receivedPacketFromLowerLayer:count 3368
scalar SingleCell.ue[2].cellularNic.mac receivedPacketFromLowerLayer:sum(packetBytes) 57152
scalar SingleCell.ue[2].cellularNic.mac receivedPacketFromUpperLayer:count 1747
scalar SingleCell.ue[2].cellularNic.mac receivedPacketFromUpperLayer:sum(packetBytes) 122289
scalar SingleCell.ue[2].cellularNic.mac macBufferOverFlowD2D:mean -nan
scalar SingleCell.ue[2].cellularNic.mac macBufferOverFlowUl:mean -nan
scalar SingleCell.ue[2].cellularNic.mac macBufferOverFlowDl:mean -nan
scalar SingleCell.ue[2].cellularNic.phy distance:mean -nan
scalar SingleCell.ue[2].cellularNic.phy averageCqiUl:mean 15
scalar SingleCell.ue[2].cellularNic.phy averageCqiUl:count 873
scalar SingleCell.ue[2].cellularNic.phy averageCqiDl:mean 15
scalar SingleCell.ue[2].cellularNic.phy averageCqiDl:count 747
scalar SingleCell.ue[2].cellularNic.channelModel[0] measuredSinrUl:mean 47.581943508178682
scalar SingleCell.ue[2].cellularNic.channelModel[0] measuredSinrDl:mean 56.114898853489073
scalar SingleCell.ue[2].cellularNic.channelModel[0] rcvdSinrD2D:mean -nan
scalar SingleCell.ue[2].cellularNic.channelModel[0] rcvdSinrUl:mean 44.794900777456427
scalar SingleCell.ue[2].cellularNic.channelModel[0] rcvdSinrDl:mean 55.491967893922755
scalar SingleCell.ue[2].cellularNic packetDropInterfaceDown:count 0
scalar SingleCell.ue[2].cellularNic packetDropInterfaceDown:sum(packetBytes) 0
scalar SingleCell.ue[2].cellularNic packetDropNoCarrier:count 0
scalar SingleCell.ue[2].cellularNic packetDropNoCarrier:sum(packetBytes) 0
scalar SingleCell.ue[2].encap pauseSent:count 0
scalar SingleCell.ue[2].encap pauseSent:sum 0
scalar SingleCell.ue[2].encap decapPk:count 0
scalar SingleCell.ue[2].encap decapPk:sum(packetBytes) 0
scalar SingleCell.ue[2].encap encapPk:count 0
scalar SingleCell.ue[2].encap encapPk:sum(packetBytes) 0
scalar SingleCell.ue[2].ipv4.ip packetDropAddressResolutionFailed:count 0
scalar SingleCell.ue[2].ipv4.ip packetDropAddressResolutionFailed:sum(packetBytes) 0
scalar SingleCell.ue[2].ipv4.ip packetDropHopLimitReached:count 0
scalar SingleCell.ue[2].ipv4.ip packetDropHopLimitReached:sum(packetBytes) 0
scalar SingleCell.ue[2].ipv4.ip packetDropForwardingDisabled:count 0
scalar SingleCell.ue[2].ipv4.ip packetDropForwardingDisabled:sum(packetBytes) 0
scalar SingleCell.ue[2].ipv4.ip packetDropNoInterfaceFound:count 0
scalar SingleCell.ue[2].ipv4.ip packetDropNoInterfaceFound:sum(packetBytes) 0
scalar SingleCell.ue[2].ipv4.ip packetDropNoRouteFound:count 0
scalar SingleCell.ue[2].ipv4.ip packetDropNoRouteFound:sum(packetBytes) 0
scalar SingleCell.ue[2].ipv4.ip packetDropUndefined:count 0
scalar SingleCell.ue[2].ipv4.ip packetDropUndefined:sum(packetBytes) 0
scalar SingleCell.ue[2].ipv4.arp arpResolutionFailed:count 0
scalar SingleCell.ue[2].ipv4.arp arpResolutionCompleted:count 0
scalar SingleCell.ue[2].ipv4.arp arpResolutionInitiated:count 0
scalar SingleCell.ue[2].ipv4.arp arpReplySent:count 0
scalar SingleCell.ue[2].ipv4.arp arpReplySent:sum(packetBytes) 0
scalar SingleCell.ue[2].ipv4.arp arpRequestSent:count 0
scalar SingleCell.ue[2].ipv4.arp arpRequestSent:sum(packetBytes) 0
scalar SingleCell.ue[2].udp packetReceived:count 747
scalar SingleCell.ue[2].udp packetReceived:sum(packetBytes) 35856
scalar SingleCell.ue[2].udp packetSent:count 874
scalar SingleCell.ue[2].udp packetSent:sum(packetBytes) 41952
scalar SingleCell.ue[2].udp passedUpPk:count 747
scalar SingleCell.ue[2].udp droppedPkWrongPort:count 0
scalar SingleCell.ue[2].udp droppedPkBadChecksum:count 0
[...]
scalar SingleCell.ue[24].cellularNic.phy servingCell:vector:min inf
scalar SingleCell.ue[24].cellularNic.phy servingCell:vector:max -inf
scalar SingleCell.ue[24].cellularNic.phy servingCell:vector:starttime nan
scalar SingleCell.ue[24].cellularNic.phy servingCell:vector:endtime nan
scalar SingleCell.ue[24].cellularNic.phy averageCqiDl:vector:count 0
scalar SingleCell.ue[24].cellularNic.phy averageCqiDl:vector:sum 0
scalar SingleCell.ue[24].cellularNic.phy averageCqiDl:vector:sumweights 0
scalar SingleCell.ue[24].cellularNic.phy averageCqiDl:vector:mean -nan
scalar SingleCell.ue[24].cellularNic.phy averageCqiDl:vector:stddev nan
scalar SingleCell.ue[24].cellularNic.phy averageCqiDl:vector:min inf
scalar SingleCell.ue[24].cellularNic.phy averageCqiDl:vector:max -inf
scalar SingleCell.ue[24].cellularNic.phy averageCqiDl:vector:starttime nan
scalar SingleCell.ue[24].cellularNic.phy averageCqiDl:vector:endtime nan
scalar SingleCell.ue[24].cellularNic.phy averageCqiUl:vector:count 0
scalar SingleCell.ue[24].cellularNic.phy averageCqiUl:vector:sum 0
scalar SingleCell.ue[24].cellularNic.phy averageCqiUl:vector:sumweights 0
scalar SingleCell.ue[24].cellularNic.phy averageCqiUl:vector:mean -nan
scalar SingleCell.ue[24].cellularNic.phy averageCqiUl:vector:stddev nan
scalar SingleCell.ue[24].cellularNic.phy averageCqiUl:vector:min inf
scalar SingleCell.ue[24].cellularNic.phy averageCqiUl:vector:max -inf
scalar SingleCell.ue[24].cellularNic.phy averageCqiUl:vector:starttime nan
scalar SingleCell.ue[24].cellularNic.phy averageCqiUl:vector:endtime nan
scalar SingleCell.ue[24].cellularNic.channelModel[0] rcvdSinrDl:vector:count 0
scalar SingleCell.ue[24].cellularNic.channelModel[0] rcvdSinrDl:vector:sum 0
scalar SingleCell.ue[24].cellularNic.channelModel[0] rcvdSinrDl:vector:sumweights 0
scalar SingleCell.ue[24].cellularNic.channelModel[0] rcvdSinrDl:vector:mean -nan
scalar SingleCell.ue[24].cellularNic.channelModel[0] rcvdSinrDl:vector:stddev nan
scalar SingleCell.ue[24].cellularNic.channelModel[0] rcvdSinrDl:vector:min inf
scalar SingleCell.ue[24].cellularNic.channelModel[0] rcvdSinrDl:vector:max -inf
scalar SingleCell.ue[24].cellularNic.channelModel[0] rcvdSinrDl:vector:starttime nan
scalar SingleCell.ue[24].cellularNic.channelModel[0] rcvdSinrDl:vector:endtime nan
scalar SingleCell.ue[24].cellularNic.channelModel[0] rcvdSinrUl:vector:count 0
scalar SingleCell.ue[24].cellularNic.channelModel[0] rcvdSinrUl:vector:sum 0
scalar SingleCell.ue[24].cellularNic.channelModel[0] rcvdSinrUl:vector:sumweights 0
scalar SingleCell.ue[24].cellularNic.channelModel[0] rcvdSinrUl:vector:mean -nan
scalar SingleCell.ue[24].cellularNic.channelModel[0] rcvdSinrUl:vector:stddev nan
scalar SingleCell.ue[24].cellularNic.channelModel[0] rcvdSinrUl:vector:min inf
scalar SingleCell.ue[24].cellularNic.channelModel[0] rcvdSinrUl:vector:max -inf
scalar SingleCell.ue[24].cellularNic.channelModel[0] rcvdSinrUl:vector:starttime nan
scalar SingleCell.ue[24].cellularNic.channelModel[0] rcvdSinrUl:vector:endtime nan
scalar SingleCell.ue[24].cellularNic.channelModel[0] rcvdSinrD2D:vector:count 0
scalar SingleCell.ue[24].cellularNic.channelModel[0] rcvdSinrD2D:vector:sum 0
scalar SingleCell.ue[24].cellularNic.channelModel[0] rcvdSinrD2D:vector:sumweights 0
scalar SingleCell.ue[24].cellularNic.channelModel[0] rcvdSinrD2D:vector:mean -nan
scalar SingleCell.ue[24].cellularNic.channelModel[0] rcvdSinrD2D:vector:stddev nan
scalar SingleCell.ue[24].cellularNic.channelModel[0] rcvdSinrD2D:vector:min inf
scalar SingleCell.ue[24].cellularNic.channelModel[0] rcvdSinrD2D:vector:max -inf
scalar SingleCell.ue[24].cellularNic.channelModel[0] rcvdSinrD2D:vector:starttime nan
scalar SingleCell.ue[24].cellularNic.channelModel[0] rcvdSinrD2D:vector:endtime nan
scalar SingleCell.ue[24].cellularNic.channelModel[0] measuredSinrDl:vector:count 0
scalar SingleCell.ue[24].cellularNic.channelModel[0] measuredSinrDl:vector:sum 0
scalar SingleCell.ue[24].cellularNic.channelModel[0] measuredSinrDl:vector:sumweights 0
scalar SingleCell.ue[24].cellularNic.channelModel[0] measuredSinrDl:vector:mean -nan
scalar SingleCell.ue[24].cellularNic.channelModel[0] measuredSinrDl:vector:stddev nan
scalar SingleCell.ue[24].cellularNic.channelModel[0] measuredSinrDl:vector:min inf
scalar SingleCell.ue[24].cellularNic.channelModel[0] measuredSinrDl:vector:max -inf
scalar SingleCell.ue[24].cellularNic.channelModel[0] measuredSinrDl:vector:starttime nan
scalar SingleCell.ue[24].cellularNic.channelModel[0] measuredSinrDl:vector:endtime nan
scalar SingleCell.ue[24].cellularNic.channelModel[0] measuredSinrUl:vector:count 0
scalar SingleCell.ue[24].cellularNic.channelModel[0] measuredSinrUl:vector:sum 0
scalar SingleCell.ue[24].cellularNic.channelModel[0] measuredSinrUl:vector:sumweights 0
scalar SingleCell.ue[24].cellularNic.channelModel[0] measuredSinrUl:vector:mean -nan
scalar SingleCell.ue[24].cellularNic.channelModel[0] measuredSinrUl:vector:stddev nan
scalar SingleCell.ue[24].cellularNic.channelModel[0] measuredSinrUl:vector:min inf
scalar SingleCell.ue[24].cellularNic.channelModel[0] measuredSinrUl:vector:max -inf
scalar SingleCell.ue[24].cellularNic.channelModel[0] measuredSinrUl:vector:starttime nan
scalar SingleCell.ue[24].cellularNic.channelModel[0] measuredSinrUl:vector:endtime nan
scalar SingleCell.ue[24].cellularNic packetDropInterfaceDown:vector(packetBytes):count 0
scalar SingleCell.ue[24].cellularNic packetDropInterfaceDown:vector(packetBytes):sum 0
scalar SingleCell.ue[24].cellularNic packetDropInterfaceDown:vector(packetBytes):sumweights 0
scalar SingleCell.ue[24].cellularNic packetDropInterfaceDown:vector(packetBytes):mean -nan
scalar SingleCell.ue[24].cellularNic packetDropInterfaceDown:vector(packetBytes):stddev nan
scalar SingleCell.ue[24].cellularNic packetDropInterfaceDown:vector(packetBytes):min inf
scalar SingleCell.ue[24].cellularNic packetDropInterfaceDown:vector(packetBytes):max -inf
scalar SingleCell.ue[24].cellularNic packetDropInterfaceDown:vector(packetBytes):starttime nan
scalar SingleCell.ue[24].cellularNic packetDropInterfaceDown:vector(packetBytes):endtime nan
scalar SingleCell.ue[24].cellularNic packetDropNoCarrier:vector(packetBytes):count 0
scalar SingleCell.ue[24].cellularNic packetDropNoCarrier:vector(packetBytes):sum 0
scalar SingleCell.ue[24].cellularNic packetDropNoCarrier:vector(packetBytes):sumweights 0
scalar SingleCell.ue[24].cellularNic packetDropNoCarrier:vector(packetBytes):mean -nan
scalar SingleCell.ue[24].cellularNic packetDropNoCarrier:vector(packetBytes):stddev nan
scalar SingleCell.ue[24].cellularNic packetDropNoCarrier:vector(packetBytes):min inf
scalar SingleCell.ue[24].cellularNic packetDropNoCarrier:vector(packetBytes):max -inf
scalar SingleCell.ue[24].cellularNic packetDropNoCarrier:vector(packetBytes):starttime nan
scalar SingleCell.ue[24].cellularNic packetDropNoCarrier:vector(packetBytes):endtime nan
scalar SingleCell.ue[24].encap encapPk:vector(packetBytes):count 0
scalar SingleCell.ue[24].encap encapPk:vector(packetBytes):sum 0
scalar SingleCell.ue[24].encap encapPk:vector(packetBytes):sumweights 0
scalar SingleCell.ue[24].encap encapPk:vector(packetBytes):mean -nan
scalar SingleCell.ue[24].encap encapPk:vector(packetBytes):stddev nan
scalar SingleCell.ue[24].encap encapPk:vector(packetBytes):min inf
scalar SingleCell.ue[24].encap encapPk:vector(packetBytes):max -inf
scalar SingleCell.ue[24].encap encapPk:vector(packetBytes):starttime nan
scalar SingleCell.ue[24].encap encapPk:vector(packetBytes):endtime nan
scalar SingleCell.ue[24].encap decapPk:vector(packetBytes):count 0
scalar SingleCell.ue[24].encap decapPk:vector(packetBytes):sum 0
scalar SingleCell.ue[24].encap decapPk:vector(packetBytes):sumweights 0
scalar SingleCell.ue[24].encap decapPk:vector(packetBytes):mean -nan
scalar SingleCell.ue[24].encap decapPk:vector(packetBytes):stddev nan
scalar SingleCell.ue[24].encap decapPk:vector(packetBytes):min inf
scalar SingleCell.ue[24].encap decapPk:vector(packetBytes):max -inf
scalar SingleCell.ue[24].encap decapPk:vector(packetBytes):starttime nan
scalar SingleCell.ue[24].encap decapPk:vector(packetBytes):endtime nan
scalar SingleCell.ue[24].encap pauseSent:vector:count 0
scalar SingleCell.ue[24].encap pauseSent:vector:sum 0
scalar SingleCell.ue[24].encap pauseSent:vector:sumweights 0
scalar SingleCell.ue[24].encap pauseSent:vector:mean -nan
scalar SingleCell.ue[24].encap pauseSent:vector:stddev nan
scalar SingleCell.ue[24].encap pauseSent:vector:min inf
scalar SingleCell.ue[24].encap pauseSent:vector:max -inf
scalar SingleCell.ue[24].encap pauseSent:vector:starttime nan
scalar SingleCell.ue[24].encap pauseSent:vector:endtime nan
scalar SingleCell.ue[24].ipv4.ip packetDropAddressResolutionFailed:vector(packetBytes):count 0
scalar SingleCell.ue[24].ipv4.ip packetDropAddressResolutionFailed:vector(packetBytes):sum 0
scalar SingleCell.ue[24].ipv4.ip packetDropAddressResolutionFailed:vector(packetBytes):sumweights 0
scalar SingleCell.ue[24].ipv4.ip packetDropAddressResolutionFailed:vector(packetBytes):mean -nan
scalar SingleCell.ue[24].ipv4.ip packetDropAddressResolutionFailed:vector(packetBytes):stddev nan
scalar SingleCell.ue[24].ipv4.ip packetDropAddressResolutionFailed:vector(packetBytes):min inf
scalar SingleCell.ue[24].ipv4.ip packetDropAddressResolutionFailed:vector(packetBytes):max -inf
scalar SingleCell.ue[24].ipv4.ip packetDropAddressResolutionFailed:vector(packetBytes):starttime nan
scalar SingleCell.ue[24].ipv4.ip packetDropAddressResolutionFailed:vector(packetBytes):endtime nan
scalar SingleCell.ue[24].ipv4.ip packetDropHopLimitReached:vector(packetBytes):count 0
scalar SingleCell.ue[24].ipv4.ip packetDropHopLimitReached:vector(packetBytes):sum 0
scalar SingleCell.ue[24].ipv4.ip packetDropHopLimitReached:vector(packetBytes):sumweights 0
scalar SingleCell.ue[24].ipv4.ip packetDropHopLimitReached:vector(packetBytes):mean -nan
scalar SingleCell.ue[24].ipv4.ip packetDropHopLimitReached:vector(packetBytes):stddev nan
scalar SingleCell.ue[24].ipv4.ip packetDropHopLimitReached:vector(packetBytes):min inf
scalar SingleCell.ue[24].ipv4.ip packetDropHopLimitReached:vector(packetBytes):max -inf
scalar SingleCell.ue[24].ipv4.ip packetDropHopLimitReached:vector(packetBytes):starttime nan
scalar SingleCell.ue[24].ipv4.ip packetDropHopLimitReached:vector(packetBytes):endtime nan
scalar SingleCell.ue[24].ipv4.ip packetDropForwardingDisabled:vector(packetBytes):count 0
scalar SingleCell.ue[24].ipv4.ip packetDropForwardingDisabled:vector(packetBytes):sum 0
scalar SingleCell.ue[24].ipv4.ip packetDropForwardingDisabled:vector(packetBytes):sumweights 0
scalar SingleCell.ue[24].ipv4.ip packetDropForwardingDisabled:vector(packetBytes):mean -nan
scalar SingleCell.ue[24].ipv4.ip packetDropForwardingDisabled:vector(packetBytes):stddev nan
scalar SingleCell.ue[24].ipv4.ip packetDropForwardingDisabled:vector(packetBytes):min inf
scalar SingleCell.ue[24].ipv4.ip packetDropForwardingDisabled:vector(packetBytes):max -inf
scalar SingleCell.ue[24].ipv4.ip packetDropForwardingDisabled:vector(packetBytes):starttime nan
scalar SingleCell.ue[24].ipv4.ip packetDropForwardingDisabled:vector(packetBytes):endtime nan
scalar SingleCell.ue[24].ipv4.ip packetDropNoInterfaceFound:vector(packetBytes):count 0
scalar SingleCell.ue[24].ipv4.ip packetDropNoInterfaceFound:vector(packetBytes):sum 0
scalar SingleCell.ue[24].ipv4.ip packetDropNoInterfaceFound:vector(packetBytes):sumweights 0
scalar SingleCell.ue[24].ipv4.ip packetDropNoInterfaceFound:vector(packetBytes):mean -nan
scalar SingleCell.ue[24].ipv4.ip packetDropNoInterfaceFound:vector(packetBytes):stddev nan
scalar SingleCell.ue[24].ipv4.ip packetDropNoInterfaceFound:vector(packetBytes):min inf
scalar SingleCell.ue[24].ipv4.ip packetDropNoInterfaceFound:vector(packetBytes):max -inf
scalar SingleCell.ue[24].ipv4.ip packetDropNoInterfaceFound:vector(packetBytes):starttime nan
scalar SingleCell.ue[24].ipv4.ip packetDropNoInterfaceFound:vector(packetBytes):endtime nan
scalar SingleCell.ue[24].ipv4.ip packetDropNoRouteFound:vector(packetBytes):count 0
scalar SingleCell.ue[24].ipv4.ip packetDropNoRouteFound:vector(packetBytes):sum 0
scalar SingleCell.ue[24].ipv4.ip packetDropNoRouteFound:vector(packetBytes):sumweights 0
scalar SingleCell.ue[24].ipv4.ip packetDropNoRouteFound:vector(packetBytes):mean -nan
scalar SingleCell.ue[24].ipv4.ip packetDropNoRouteFound:vector(packetBytes):stddev nan
scalar SingleCell.ue[24].ipv4.ip packetDropNoRouteFound:vector(packetBytes):min inf
scalar SingleCell.ue[24].ipv4.ip packetDropNoRouteFound:vector(packetBytes):max -inf
scalar SingleCell.ue[24].ipv4.ip packetDropNoRouteFound:vector(packetBytes):starttime nan
scalar SingleCell.ue[24].ipv4.ip packetDropNoRouteFound:vector(packetBytes):endtime nan
scalar SingleCell.ue[24].ipv4.ip packetDropUndefined:vector(packetBytes):count 0
scalar SingleCell.ue[24].ipv4.ip packetDropUndefined:vector(packetBytes):sum 0
scalar SingleCell.ue[24].ipv4.ip packetDropUndefined:vector(packetBytes):sumweights 0
scalar SingleCell.ue[24].ipv4.ip packetDropUndefined:vector(packetBytes):mean -nan
scalar SingleCell.ue[24].ipv4.ip packetDropUndefined:vector(packetBytes):stddev nan
scalar SingleCell.ue[24].ipv4.ip packetDropUndefined:vector(packetBytes):min inf
scalar SingleCell.ue[24].ipv4.ip packetDropUndefined:vector(packetBytes):max -inf
scalar SingleCell.ue[24].ipv4.ip packetDropUndefined:vector(packetBytes):starttime nan
scalar SingleCell.ue[24].ipv4.ip packetDropUndefined:vector(packetBytes):endtime nan
scalar SingleCell.ue[24].ipv4.arp arpRequestSent:vector(packetBytes):count 0
scalar SingleCell.ue[24].ipv4.arp arpRequestSent:vector(packetBytes):sum 0
scalar SingleCell.ue[24].ipv4.arp arpRequestSent:vector(packetBytes):sumweights 0
scalar SingleCell.ue[24].ipv4.arp arpRequestSent:vector(packetBytes):mean -nan
scalar SingleCell.ue[24].ipv4.arp arpRequestSent:vector(packetBytes):stddev nan
scalar SingleCell.ue[24].ipv4.arp arpRequestSent:vector(packetBytes):min inf
scalar SingleCell.ue[24].ipv4.arp arpRequestSent:vector(packetBytes):max -inf
scalar SingleCell.ue[24].ipv4.arp arpRequestSent:vector(packetBytes):starttime nan
scalar SingleCell.ue[24].ipv4.arp arpRequestSent:vector(packetBytes):endtime nan
scalar SingleCell.ue[24].ipv4.arp arpReplySent:vector(packetBytes):count 0
scalar SingleCell.ue[24].ipv4.arp arpReplySent:vector(packetBytes):sum 0
scalar SingleCell.ue[24].ipv4.arp arpReplySent:vector(packetBytes):sumweights 0
scalar SingleCell.ue[24].ipv4.arp arpReplySent:vector(packetBytes):mean -nan
scalar SingleCell.ue[24].ipv4.arp arpReplySent:vector(packetBytes):stddev nan
scalar SingleCell.ue[24].ipv4.arp arpReplySent:vector(packetBytes):min inf
scalar SingleCell.ue[24].ipv4.arp arpReplySent:vector(packetBytes):max -inf
scalar SingleCell.ue[24].ipv4.arp arpReplySent:vector(packetBytes):starttime nan
scalar SingleCell.ue[24].ipv4.arp arpReplySent:vector(packetBytes):endtime nan
scalar SingleCell.ue[24].udp packetSent:vector(packetBytes):count 0
scalar SingleCell.ue[24].udp packetSent:vector(packetBytes):sum 0
scalar SingleCell.ue[24].udp packetSent:vector(packetBytes):sumweights 0
scalar SingleCell.ue[24].udp packetSent:vector(packetBytes):mean -nan
scalar SingleCell.ue[24].udp packetSent:vector(packetBytes):stddev nan
scalar SingleCell.ue[24].udp packetSent:vector(packetBytes):min inf
scalar SingleCell.ue[24].udp packetSent:vector(packetBytes):max -inf
scalar SingleCell.ue[24].udp packetSent:vector(packetBytes):starttime nan
scalar SingleCell.ue[24].udp packetSent:vector(packetBytes):endtime nan
scalar SingleCell.ue[24].udp packetReceived:vector(packetBytes):count 0
scalar SingleCell.ue[24].udp packetReceived:vector(packetBytes):sum 0
scalar SingleCell.ue[24].udp packetReceived:vector(packetBytes):sumweights 0
scalar SingleCell.ue[24].udp packetReceived:vector(packetBytes):mean -nan
scalar SingleCell.ue[24].udp packetReceived:vector(packetBytes):stddev nan
scalar SingleCell.ue[24].udp packetReceived:vector(packetBytes):min inf
scalar SingleCell.ue[24].udp packetReceived:vector(packetBytes):max -inf
scalar SingleCell.ue[24].udp packetReceived:vector(packetBytes):starttime nan
scalar SingleCell.ue[24].udp packetReceived:vector(packetBytes):endtime nan
scalar SingleCell.ue[24].udp passedUpPk:vector(count):count 0
scalar SingleCell.ue[24].udp passedUpPk:vector(count):sum 0
scalar SingleCell.ue[24].udp passedUpPk:vector(count):sumweights 0
scalar SingleCell.ue[24].udp passedUpPk:vector(count):mean -nan
scalar SingleCell.ue[24].udp passedUpPk:vector(count):stddev nan
scalar SingleCell.ue[24].udp passedUpPk:vector(count):min inf
scalar SingleCell.ue[24].udp passedUpPk:vector(count):max -inf
scalar SingleCell.ue[24].udp passedUpPk:vector(count):starttime nan
scalar SingleCell.ue[24].udp passedUpPk:vector(count):endtime nan
scalar SingleCell.ue[24].udp droppedPkWrongPort:vector(count):count 0
scalar SingleCell.ue[24].udp droppedPkWrongPort:vector(count):sum 0
scalar SingleCell.ue[24].udp droppedPkWrongPort:vector(count):sumweights 0
scalar SingleCell.ue[24].udp droppedPkWrongPort:vector(count):mean -nan
scalar SingleCell.ue[24].udp droppedPkWrongPort:vector(count):stddev nan
scalar SingleCell.ue[24].udp droppedPkWrongPort:vector(count):min inf
scalar SingleCell.ue[24].udp droppedPkWrongPort:vector(count):max -inf
scalar SingleCell.ue[24].udp droppedPkWrongPort:vector(count):starttime nan
scalar SingleCell.ue[24].udp droppedPkWrongPort:vector(count):endtime nan
scalar SingleCell.ue[24].udp droppedPkBadChecksum:vector(count):count 0
scalar SingleCell.ue[24].udp droppedPkBadChecksum:vector(count):sum 0
scalar SingleCell.ue[24].udp droppedPkBadChecksum:vector(count):sumweights 0
scalar SingleCell.ue[24].udp droppedPkBadChecksum:vector(count):mean -nan
scalar SingleCell.ue[24].udp droppedPkBadChecksum:vector(count):stddev nan
scalar SingleCell.ue[24].udp droppedPkBadChecksum:vector(count):min inf
scalar SingleCell.ue[24].udp droppedPkBadChecksum:vector(count):max -inf
scalar SingleCell.ue[24].udp droppedPkBadChecksum:vector(count):starttime nan
scalar SingleCell.ue[24].udp droppedPkBadChecksum:vector(count):endtime nan
scalar SingleCell.ue[24].app[0] voipFrameDelay:vector:count 0
scalar SingleCell.ue[24].app[0] voipFrameDelay:vector:sum 0
scalar SingleCell.ue[24].app[0] voipFrameDelay:vector:sumweights 0
scalar SingleCell.ue[24].app[0] voipFrameDelay:vector:mean -nan
scalar SingleCell.ue[24].app[0] voipFrameDelay:vector:stddev nan
scalar SingleCell.ue[24].app[0] voipFrameDelay:vector:min inf
scalar SingleCell.ue[24].app[0] voipFrameDelay:vector:max -inf
scalar SingleCell.ue[24].app[0] voipFrameDelay:vector:starttime nan
scalar SingleCell.ue[24].app[0] voipFrameDelay:vector:endtime nan
scalar SingleCell.ue[24].app[0] voipReceivedThroughput:vector:count 0
scalar SingleCell.ue[24].app[0] voipReceivedThroughput:vector:sum 0
scalar SingleCell.ue[24].app[0] voipReceivedThroughput:vector:sumweights 0
scalar SingleCell.ue[24].app[0] voipReceivedThroughput:vector:mean -nan
scalar SingleCell.ue[24].app[0] voipReceivedThroughput:vector:stddev nan
scalar SingleCell.ue[24].app[0] voipReceivedThroughput:vector:min inf
scalar SingleCell.ue[24].app[0] voipReceivedThroughput:vector:max -inf
scalar SingleCell.ue[24].app[0] voipReceivedThroughput:vector:starttime nan
scalar SingleCell.ue[24].app[0] voipReceivedThroughput:vector:endtime nan
scalar SingleCell.ue[24].app[1] voipGeneratedThroughput:vector:count 0
scalar SingleCell.ue[24].app[1] voipGeneratedThroughput:vector:sum 0
scalar SingleCell.ue[24].app[1] voipGeneratedThroughput:vector:sumweights 0
scalar SingleCell.ue[24].app[1] voipGeneratedThroughput:vector:mean -nan
scalar SingleCell.ue[24].app[1] voipGeneratedThroughput:vector:stddev nan
scalar SingleCell.ue[24].app[1] voipGeneratedThroughput:vector:min inf
scalar SingleCell.ue[24].app[1] voipGeneratedThroughput:vector:max -inf
scalar SingleCell.ue[24].app[1] voipGeneratedThroughput:vector:starttime nan
scalar SingleCell.ue[24].app[1] voipGeneratedThroughput:vector:endtime nan

