version 3
run VoIP_DL-UL-0-20260709-21:29:47-650845
attr configname VoIP_DL-UL
attr datetime 20260709-21:29:47
attr datetimef 20260709-212947
attr experiment VoIP_DL-UL
attr inifile omnetpp.ini
attr iterationvars "$numUEs=25, $directions=2"
attr iterationvarsd numUEs=25/directions=2
attr iterationvarsf numUEs=25,directions=2-
attr measurement "$numUEs=25, $directions=2"
attr network simu5g.simulations.lte.networks.SingleCell
attr processid 650845
attr repetition 0
attr replication #0
attr resultdir results
attr runnumber 0
attr seedset 0
itervar directions 2
itervar numUEs 25
config **.param-recording false
config image-path /home/andras/projects/Simu5G-fork/simu5g-fork/images
config output-scalar-file results/omnetpp.ini-VoIP_DL-UL-#0.sca
config output-scalar-precision 17
config output-vector-file results/omnetpp.ini-VoIP_DL-UL-#0.vec
config output-vector-precision 17
config record-eventlog false
config sim-time-limit 20s
config sim-time-limit 20s
config warmup-period 0s
config network simu5g.simulations.lte.networks.SingleCell
config **.numUe 25
config **.vector-recording false
config **.mac.schedulingDisciplineDl "\"MAXCI\""
config **.mac.schedulingDisciplineUl "\"MAXCI\""
config **.rbAllocationType "\"localized\""
config **.ue[*].macCellId 1
config **.ue[*].masterId 1
config *.ue[*].mobility.initFromDisplayString false
config *.ue[*].mobility.initialX uniform(200m,400m)
config *.ue[*].mobility.initialY uniform(200m,400m)
config *.ue[*].mobility.initialZ 0m
config *.ue[*].mobility.speed 0mps
config *.ue[*].mobility.typename LinearMobility
config *.eNB.mobility.initFromDisplayString false
config *.eNB.mobility.initialX 300m
config *.eNB.mobility.initialY 300m
config *.ue[*].numApps 2
config *.server.numApps "2 * 25"
config *.server.app[0..24].typename VoipReceiver
config *.server.app[0..24].localPort 4000+ancestorIndex(0)
config *.ue[*].app[1].packetSize 40B
config *.ue[*].app[1].destAddress "\"server\""
config *.ue[*].app[1].destPort 4000+ancestorIndex(1)
config *.ue[*].app[1].localPort 4088
config *.ue[*].app[1].typename VoipSender
config *.ue[*].app[1].startTime uniform(0s,0.02s)
config *.ue[*].app[0].typename VoipReceiver
config *.ue[*].app[0].localPort 3000
config *.server.app[25..].typename VoipSender
config *.server.app[25..].packetSize 40B
config *.server.app[25..].destAddress "\"ue[\"+string(ancestorIndex(0)-25)+\"]\""
config *.server.app[25..].destPort 3000
config *.server.app[25..].localPort 3088+ancestorIndex(0)
config *.server.app[25..].startTime uniform(0s,0.02s)
config sim-time-limit 20s
config output-scalar-file results/VoIP_DL-UL/0.sca
config output-vector-file results/VoIP_DL-UL/0.vec
config seed-set 0
config **.vector-recording false
config **.mobility.constraintAreaMinZ 0m
config **.mobility.constraintAreaMaxZ 0m
config **.mobility.initFromDisplayString true
config **.numBands 6
config **.ueTxPower 26dBm
config **.eNodeBTxPower 40dBm
config *.configurator.config "xmldoc(\"./demo.xml\")"

scalar SingleCell.server.lo[0].lo rcvdPkFromHl:count 0
scalar SingleCell.server.lo[0].lo rcvdPkFromHl:sum(packetBytes) 0
scalar SingleCell.server.lo[0].lo passedUpPk:count 0
scalar SingleCell.server.lo[0].lo passedUpPk:sum(packetBytes) 0
scalar SingleCell.server.lo[0] packetDropInterfaceDown:count 0
scalar SingleCell.server.lo[0] packetDropInterfaceDown:sum(packetBytes) 0
scalar SingleCell.server.lo[0] packetDropNoCarrier:count 0
scalar SingleCell.server.lo[0] packetDropNoCarrier:sum(packetBytes) 0
scalar SingleCell.server.ppp[0].queue queueLength:last 0
scalar SingleCell.server.ppp[0].queue queueLength:max 0
scalar SingleCell.server.ppp[0].queue queueLength:timeavg 0
scalar SingleCell.server.ppp[0].queue queueBitLength:last 0
scalar SingleCell.server.ppp[0].queue queueBitLength:max 0
scalar SingleCell.server.ppp[0].queue queueBitLength:timeavg 0
scalar SingleCell.server.ppp[0].queue outgoingPackets:count 16872
scalar SingleCell.server.ppp[0].queue outgoingPacketLengths:sum 9178368
scalar SingleCell.server.ppp[0].queue incomingPackets:count 16872
scalar SingleCell.server.ppp[0].queue incomingPacketLengths:sum 9178368
scalar SingleCell.server.ppp[0].queue droppedPacketsQueueOverflow:count 0
scalar SingleCell.server.ppp[0].queue droppedPacketLengthsQueueOverflow:sum 0
scalar SingleCell.server.ppp[0].ppp transmissionState:timeavg 5.0615999999993825e-05
scalar SingleCell.server.ppp[0].ppp rxPkOk:count 16522
scalar SingleCell.server.ppp[0].ppp rxPkOk:sum(packetBytes) 1239150
scalar SingleCell.server.ppp[0].ppp txPk:count 16872
scalar SingleCell.server.ppp[0].ppp txPk:sum(packetBytes) 1265400
scalar SingleCell.server.ppp[0].ppp rcvdPkFromHl:count 16872
scalar SingleCell.server.ppp[0].ppp rcvdPkFromHl:sum(packetBytes) 1147296
scalar SingleCell.server.ppp[0].ppp passedUpPk:count 16522
scalar SingleCell.server.ppp[0].ppp passedUpPk:sum(packetBytes) 1123496
scalar SingleCell.server.ppp[0].ppp packetDropIncorrectlyReceived:count 0
scalar SingleCell.server.ppp[0].ppp packetDropIncorrectlyReceived:sum(packetBytes) 0
scalar SingleCell.server.ppp[0].ppp packetDropInterfaceDown:count 0
scalar SingleCell.server.ppp[0].ppp packetDropInterfaceDown:sum(packetBytes) 0
scalar SingleCell.server.ppp[0] packetDropInterfaceDown:count 0
scalar SingleCell.server.ppp[0] packetDropInterfaceDown:sum(packetBytes) 0
scalar SingleCell.server.ppp[0] packetDropNoCarrier:count 0
scalar SingleCell.server.ppp[0] packetDropNoCarrier:sum(packetBytes) 0
scalar SingleCell.server.ipv4.ip packetDropAddressResolutionFailed:count 0
scalar SingleCell.server.ipv4.ip packetDropAddressResolutionFailed:sum(packetBytes) 0
scalar SingleCell.server.ipv4.ip packetDropHopLimitReached:count 0
scalar SingleCell.server.ipv4.ip packetDropHopLimitReached:sum(packetBytes) 0
scalar SingleCell.server.ipv4.ip packetDropForwardingDisabled:count 0
scalar SingleCell.server.ipv4.ip packetDropForwardingDisabled:sum(packetBytes) 0
scalar SingleCell.server.ipv4.ip packetDropNoInterfaceFound:count 0
scalar SingleCell.server.ipv4.ip packetDropNoInterfaceFound:sum(packetBytes) 0
scalar SingleCell.server.ipv4.ip packetDropNoRouteFound:count 0
scalar SingleCell.server.ipv4.ip packetDropNoRouteFound:sum(packetBytes) 0
scalar SingleCell.server.ipv4.ip packetDropUndefined:count 0
scalar SingleCell.server.ipv4.ip packetDropUndefined:sum(packetBytes) 0
scalar SingleCell.server.ipv4.arp arpResolutionFailed:count 0
scalar SingleCell.server.ipv4.arp arpResolutionCompleted:count 0
scalar SingleCell.server.ipv4.arp arpResolutionInitiated:count 0
scalar SingleCell.server.ipv4.arp arpReplySent:count 0
scalar SingleCell.server.ipv4.arp arpReplySent:sum(packetBytes) 0
scalar SingleCell.server.ipv4.arp arpRequestSent:count 0
scalar SingleCell.server.ipv4.arp arpRequestSent:sum(packetBytes) 0
scalar SingleCell.server.udp packetReceived:count 16522
scalar SingleCell.server.udp packetReceived:sum(packetBytes) 793056
scalar SingleCell.server.udp packetSent:count 16872
scalar SingleCell.server.udp packetSent:sum(packetBytes) 809856
scalar SingleCell.server.udp passedUpPk:count 16522
scalar SingleCell.server.udp droppedPkWrongPort:count 0
scalar SingleCell.server.udp droppedPkBadChecksum:count 0
scalar SingleCell.server.app[0] voIPReceivedThroughput:mean 1549.4777058676707
scalar SingleCell.server.app[0] voIPPlayoutLoss:mean 0
scalar SingleCell.server.app[0] voIPJitter:mean -nan
scalar SingleCell.server.app[0] voIPTaildropLoss:mean 0
scalar SingleCell.server.app[0] voIPMos:mean 4.4092858240000004
scalar SingleCell.server.app[0] voIPPlayoutDelay:mean 0
scalar SingleCell.server.app[0] voIPFrameDelay:mean 0.0081960885189600284
scalar SingleCell.server.app[0] voIPFrameLoss:mean 0
scalar SingleCell.server.app[1] voIPReceivedThroughput:mean 1374.3940515340948
scalar SingleCell.server.app[1] voIPPlayoutLoss:mean 0.037537537537537538
scalar SingleCell.server.app[1] voIPJitter:mean 8.8799999999999935e-08
scalar SingleCell.server.app[1] voIPTaildropLoss:mean 0
scalar SingleCell.server.app[1] voIPMos:mean 4.0718002265188487
scalar SingleCell.server.app[1] voIPPlayoutDelay:mean 9.8666666666666673e-09
scalar SingleCell.server.app[1] voIPFrameDelay:mean 0.0083767462729939426
scalar SingleCell.server.app[1] voIPFrameLoss:mean 0
scalar SingleCell.server.app[2] voIPReceivedThroughput:mean 1595.9369890931441
scalar SingleCell.server.app[2] voIPPlayoutLoss:mean 0
scalar SingleCell.server.app[2] voIPJitter:mean -nan
scalar SingleCell.server.app[2] voIPTaildropLoss:mean 0
scalar SingleCell.server.app[2] voIPMos:mean 4.4092858240000004
scalar SingleCell.server.app[2] voIPPlayoutDelay:mean 0
scalar SingleCell.server.app[2] voIPFrameDelay:mean 0.0085490315228190505
scalar SingleCell.server.app[2] voIPFrameLoss:mean 0
scalar SingleCell.server.app[3] voIPReceivedThroughput:mean 1657.1385218615171
scalar SingleCell.server.app[3] voIPPlayoutLoss:mean 0
scalar SingleCell.server.app[3] voIPJitter:mean -nan
scalar SingleCell.server.app[3] voIPTaildropLoss:mean 0
scalar SingleCell.server.app[3] voIPMos:mean 4.4092858240000004
scalar SingleCell.server.app[3] voIPPlayoutDelay:mean 0
scalar SingleCell.server.app[3] voIPFrameDelay:mean 0.0086218644478972557
scalar SingleCell.server.app[3] voIPFrameLoss:mean 0
scalar SingleCell.server.app[4] voIPReceivedThroughput:mean 1507.8410124620743
scalar SingleCell.server.app[4] voIPPlayoutLoss:mean 0
scalar SingleCell.server.app[4] voIPJitter:mean -nan
scalar SingleCell.server.app[4] voIPTaildropLoss:mean 0
scalar SingleCell.server.app[4] voIPMos:mean 4.4092858240000004
scalar SingleCell.server.app[4] voIPPlayoutDelay:mean 0
scalar SingleCell.server.app[4] voIPFrameDelay:mean 0.0085392993001027397
scalar SingleCell.server.app[4] voIPFrameLoss:mean 0
scalar SingleCell.server.app[5] voIPReceivedThroughput:mean 1580.2483509659451
scalar SingleCell.server.app[5] voIPPlayoutLoss:mean 0.018518518518518517
scalar SingleCell.server.app[5] voIPJitter:mean 8.8799999999999961e-08
scalar SingleCell.server.app[5] voIPTaildropLoss:mean 0
scalar SingleCell.server.app[5] voIPMos:mean 4.0673850467497177
scalar SingleCell.server.app[5] voIPPlayoutDelay:mean 1.48e-08
scalar SingleCell.server.app[5] voIPFrameDelay:mean 0.0082929590947907472
scalar SingleCell.server.app[5] voIPFrameLoss:mean 0
scalar SingleCell.server.app[6] voIPReceivedThroughput:mean 1164.1921547668442
scalar SingleCell.server.app[6] voIPPlayoutLoss:mean 0.089619492656875827
scalar SingleCell.server.app[6] voIPJitter:mean 8.8799999999999922e-08
scalar SingleCell.server.app[6] voIPTaildropLoss:mean 0
scalar SingleCell.server.app[6] voIPMos:mean 3.9179012415825367
scalar SingleCell.server.app[6] voIPPlayoutDelay:mean 1.7760000000000002e-08
scalar SingleCell.server.app[6] voIPFrameDelay:mean 0.0083619967842706415
scalar SingleCell.server.app[6] voIPFrameLoss:mean 0
scalar SingleCell.server.app[7] voIPReceivedThroughput:mean 1188.2791727769636
scalar SingleCell.server.app[7] voIPPlayoutLoss:mean 0
scalar SingleCell.server.app[7] voIPJitter:mean -nan
scalar SingleCell.server.app[7] voIPTaildropLoss:mean 0
scalar SingleCell.server.app[7] voIPMos:mean 4.4092858240000004
scalar SingleCell.server.app[7] voIPPlayoutDelay:mean 0
scalar SingleCell.server.app[7] voIPFrameDelay:mean 0.0083767955626428778
scalar SingleCell.server.app[7] voIPFrameLoss:mean 0
scalar SingleCell.server.app[8] voIPReceivedThroughput:mean 1434.0705636557036
scalar SingleCell.server.app[8] voIPPlayoutLoss:mean 0.087426230307759825
scalar SingleCell.server.app[8] voIPJitter:mean 8.8799999999999922e-08
scalar SingleCell.server.app[8] voIPTaildropLoss:mean 0
scalar SingleCell.server.app[8] voIPMos:mean 3.72317177900015
scalar SingleCell.server.app[8] voIPPlayoutDelay:mean 2.96e-08
scalar SingleCell.server.app[8] voIPFrameDelay:mean 0.008463201313116623
scalar SingleCell.server.app[8] voIPFrameLoss:mean 0
scalar SingleCell.server.app[9] voIPReceivedThroughput:mean 1444.5740693341847
scalar SingleCell.server.app[9] voIPPlayoutLoss:mean 0.0077519379844961239
scalar SingleCell.server.app[9] voIPJitter:mean 8.8800000000000001e-08
scalar SingleCell.server.app[9] voIPTaildropLoss:mean 0
scalar SingleCell.server.app[9] voIPMos:mean 4.241836561538082
scalar SingleCell.server.app[9] voIPPlayoutDelay:mean 9.8666666666666673e-09
scalar SingleCell.server.app[9] voIPFrameDelay:mean 0.00846255888602164
scalar SingleCell.server.app[9] voIPFrameLoss:mean 0
scalar SingleCell.server.app[10] voIPReceivedThroughput:mean 1577.9875690233741
scalar SingleCell.server.app[10] voIPPlayoutLoss:mean 0.045537340619307837
scalar SingleCell.server.app[10] voIPJitter:mean 8.8799999999999948e-08
scalar SingleCell.server.app[10] voIPTaildropLoss:mean 0
scalar SingleCell.server.app[10] voIPMos:mean 4.0613179478171606
scalar SingleCell.server.app[10] voIPPlayoutDelay:mean 1.9733333333333335e-08
scalar SingleCell.server.app[10] voIPFrameDelay:mean 0.0086369195593710563
scalar SingleCell.server.app[10] voIPFrameLoss:mean 0
scalar SingleCell.server.app[11] voIPReceivedThroughput:mean 842.12773946448044
scalar SingleCell.server.app[11] voIPPlayoutLoss:mean 0.14142794350908708
scalar SingleCell.server.app[11] voIPJitter:mean 8.8799999999999908e-08
scalar SingleCell.server.app[11] voIPTaildropLoss:mean 0
scalar SingleCell.server.app[11] voIPMos:mean 3.8061503794149787
scalar SingleCell.server.app[11] voIPPlayoutDelay:mean 1.6145454545454545e-08
scalar SingleCell.server.app[11] voIPFrameDelay:mean 0.0084795598321766048
scalar SingleCell.server.app[11] voIPFrameLoss:mean 0
scalar SingleCell.server.app[12] voIPReceivedThroughput:mean 1414.0435255307923
scalar SingleCell.server.app[12] voIPPlayoutLoss:mean 0.079746132023046992
scalar SingleCell.server.app[12] voIPJitter:mean 8.8799999999999908e-08
scalar SingleCell.server.app[12] voIPTaildropLoss:mean 0
scalar SingleCell.server.app[12] voIPMos:mean 3.8660184076405661
scalar SingleCell.server.app[12] voIPPlayoutDelay:mean 9.8666666666666673e-09
scalar SingleCell.server.app[12] voIPFrameDelay:mean 0.0084366765045096326
scalar SingleCell.server.app[12] voIPFrameLoss:mean 0
scalar SingleCell.server.app[13] voIPReceivedThroughput:mean 1794.5099856705508
scalar SingleCell.server.app[13] voIPPlayoutLoss:mean 0
scalar SingleCell.server.app[13] voIPJitter:mean -nan
scalar SingleCell.server.app[13] voIPTaildropLoss:mean 0
scalar SingleCell.server.app[13] voIPMos:mean 4.4092858240000004
scalar SingleCell.server.app[13] voIPPlayoutDelay:mean 0
scalar SingleCell.server.app[13] voIPFrameDelay:mean 0.0085030181812308907
scalar SingleCell.server.app[13] voIPFrameLoss:mean 0
scalar SingleCell.server.app[14] voIPReceivedThroughput:mean 1569.1745911684766
scalar SingleCell.server.app[14] voIPPlayoutLoss:mean 0.019258712807099902
scalar SingleCell.server.app[14] voIPJitter:mean 9.1862068965517174e-08
scalar SingleCell.server.app[14] voIPTaildropLoss:mean 0
scalar SingleCell.server.app[14] voIPMos:mean 4.1666607163860725
scalar SingleCell.server.app[14] voIPPlayoutDelay:mean 3.4153846153846157e-08
scalar SingleCell.server.app[14] voIPFrameDelay:mean 0.0087805249621195694
scalar SingleCell.server.app[14] voIPFrameLoss:mean 0
scalar SingleCell.server.app[15] voIPReceivedThroughput:mean 1024.1956978498629
scalar SingleCell.server.app[15] voIPPlayoutLoss:mean 0.093283894754482996
scalar SingleCell.server.app[15] voIPJitter:mean 1.096941176470587e-07
scalar SingleCell.server.app[15] voIPTaildropLoss:mean 0
scalar SingleCell.server.app[15] voIPMos:mean 3.7733819057827906
scalar SingleCell.server.app[15] voIPPlayoutDelay:mean 2.96e-08
scalar SingleCell.server.app[15] voIPFrameDelay:mean 0.0086560396987668438
scalar SingleCell.server.app[15] voIPFrameLoss:mean 0
scalar SingleCell.server.app[16] voIPReceivedThroughput:mean 1502.1363266969886
scalar SingleCell.server.app[16] voIPPlayoutLoss:mean 0.097824202496532592
scalar SingleCell.server.app[16] voIPJitter:mean 8.8799999999999922e-08
scalar SingleCell.server.app[16] voIPTaildropLoss:mean 0
scalar SingleCell.server.app[16] voIPMos:mean 3.563117427933868
scalar SingleCell.server.app[16] voIPPlayoutDelay:mean 2.5371428571428573e-08
scalar SingleCell.server.app[16] voIPFrameDelay:mean 0.0086698853049322309
scalar SingleCell.server.app[16] voIPFrameLoss:mean 0
scalar SingleCell.server.app[17] voIPReceivedThroughput:mean 1626.0205303415855
scalar SingleCell.server.app[17] voIPPlayoutLoss:mean 0.017483736059479553
scalar SingleCell.server.app[17] voIPJitter:mean 8.8799999999999935e-08
scalar SingleCell.server.app[17] voIPTaildropLoss:mean 0
scalar SingleCell.server.app[17] voIPMos:mean 4.0950442066770663
scalar SingleCell.server.app[17] voIPPlayoutDelay:mean 4.4400000000000001e-08
scalar SingleCell.server.app[17] voIPFrameDelay:mean 0.0085627179900000308
scalar SingleCell.server.app[17] voIPFrameLoss:mean 0
scalar SingleCell.server.app[18] voIPReceivedThroughput:mean 1487.0064929279731
scalar SingleCell.server.app[18] voIPPlayoutLoss:mean 0.033112582781456949
scalar SingleCell.server.app[18] voIPJitter:mean 8.8799999999999922e-08
scalar SingleCell.server.app[18] voIPTaildropLoss:mean 0
scalar SingleCell.server.app[18] voIPMos:mean 4.1295878308490197
scalar SingleCell.server.app[18] voIPPlayoutDelay:mean 8.0727272727272725e-09
scalar SingleCell.server.app[18] voIPFrameDelay:mean 0.0084447100024417909
scalar SingleCell.server.app[18] voIPFrameLoss:mean 0
scalar SingleCell.server.app[19] voIPReceivedThroughput:mean 1257.5865648147781
scalar SingleCell.server.app[19] voIPPlayoutLoss:mean 0.029513888888888888
scalar SingleCell.server.app[19] voIPJitter:mean 8.8799999999999975e-08
scalar SingleCell.server.app[19] voIPTaildropLoss:mean 0
scalar SingleCell.server.app[19] voIPMos:mean 4.0883859405916123
scalar SingleCell.server.app[19] voIPPlayoutDelay:mean 9.8666666666666673e-09
scalar SingleCell.server.app[19] voIPFrameDelay:mean 0.0082758361834066874
scalar SingleCell.server.app[19] voIPFrameLoss:mean 0
scalar SingleCell.server.app[20] voIPReceivedThroughput:mean 1616.0387157858745
scalar SingleCell.server.app[20] voIPPlayoutLoss:mean 0
scalar SingleCell.server.app[20] voIPJitter:mean -nan
scalar SingleCell.server.app[20] voIPTaildropLoss:mean 0
scalar SingleCell.server.app[20] voIPMos:mean 4.4092858240000004
scalar SingleCell.server.app[20] voIPPlayoutDelay:mean 0
scalar SingleCell.server.app[20] voIPFrameDelay:mean 0.0084231679172668428
scalar SingleCell.server.app[20] voIPFrameLoss:mean 0
scalar SingleCell.server.app[21] voIPReceivedThroughput:mean 1299.9377641556716
scalar SingleCell.server.app[21] voIPPlayoutLoss:mean 0.070443143812709025
scalar SingleCell.server.app[21] voIPJitter:mean 8.8799999999999935e-08
scalar SingleCell.server.app[21] voIPTaildropLoss:mean 0
scalar SingleCell.server.app[21] voIPMos:mean 3.6392686701024077
scalar SingleCell.server.app[21] voIPPlayoutDelay:mean 2.4218181818181818e-08
scalar SingleCell.server.app[21] voIPFrameDelay:mean 0.0083426794662678147
scalar SingleCell.server.app[21] voIPFrameLoss:mean 0
scalar SingleCell.server.app[22] voIPReceivedThroughput:mean 1381.5970135554514
scalar SingleCell.server.app[22] voIPPlayoutLoss:mean 0.14342391927531248
scalar SingleCell.server.app[22] voIPJitter:mean 9.7923287671232773e-08
scalar SingleCell.server.app[22] voIPTaildropLoss:mean 0
scalar SingleCell.server.app[22] voIPMos:mean 3.3975716914529515
scalar SingleCell.server.app[22] voIPPlayoutDelay:mean 4.9333333333333332e-08
scalar SingleCell.server.app[22] voIPFrameDelay:mean 0.0083123378694546623
scalar SingleCell.server.app[22] voIPFrameLoss:mean 0
scalar SingleCell.server.app[23] voIPReceivedThroughput:mean 1256.3997593430208
scalar SingleCell.server.app[23] voIPPlayoutLoss:mean 0.016137708445400752
scalar SingleCell.server.app[23] voIPJitter:mean 8.8799999999999922e-08
scalar SingleCell.server.app[23] voIPTaildropLoss:mean 0
scalar SingleCell.server.app[23] voIPMos:mean 4.1771538199889529
scalar SingleCell.server.app[23] voIPPlayoutDelay:mean 0
scalar SingleCell.server.app[23] voIPFrameDelay:mean 0.0084484464488611844
scalar SingleCell.server.app[23] voIPFrameLoss:mean 0
scalar SingleCell.server.app[24] voIPReceivedThroughput:mean 1415.6542075387763
scalar SingleCell.server.app[24] voIPPlayoutLoss:mean 0.17835546096415661
scalar SingleCell.server.app[24] voIPJitter:mean 1.0994285714285734e-07
scalar SingleCell.server.app[24] voIPTaildropLoss:mean 0
scalar SingleCell.server.app[24] voIPMos:mean 3.525596347703853
scalar SingleCell.server.app[24] voIPPlayoutDelay:mean 3.229090909090909e-08
scalar SingleCell.server.app[24] voIPFrameDelay:mean 0.0086279673117145746
scalar SingleCell.server.app[24] voIPFrameLoss:mean 0
scalar SingleCell.server.app[25] voIPGeneratedThroughput:mean 1723.8133503298154
scalar SingleCell.server.app[26] voIPGeneratedThroughput:mean 1498.5815260705576
scalar SingleCell.server.app[27] voIPGeneratedThroughput:mean 1801.9267157653453
scalar SingleCell.server.app[28] voIPGeneratedThroughput:mean 1166.3922821709673
scalar SingleCell.server.app[29] voIPGeneratedThroughput:mean 1559.2036964834933
scalar SingleCell.server.app[30] voIPGeneratedThroughput:mean 1945.8701262410079
scalar SingleCell.server.app[31] voIPGeneratedThroughput:mean 1357.933180163164
scalar SingleCell.server.app[32] voIPGeneratedThroughput:mean 1162.8027379203074
scalar SingleCell.server.app[33] voIPGeneratedThroughput:mean 1395.0731238260489
scalar SingleCell.server.app[34] voIPGeneratedThroughput:mean 1865.9068808841037
scalar SingleCell.server.app[35] voIPGeneratedThroughput:mean 1827.0806208840715
scalar SingleCell.server.app[36] voIPGeneratedThroughput:mean 1855.2478338014685
scalar SingleCell.server.app[37] voIPGeneratedThroughput:mean 1632.2664240429069
scalar SingleCell.server.app[38] voIPGeneratedThroughput:mean 1144.3365352543699
scalar SingleCell.server.app[39] voIPGeneratedThroughput:mean 1530.6708076310567
scalar SingleCell.server.app[40] voIPGeneratedThroughput:mean 1633.9753393280093
scalar SingleCell.server.app[41] voIPGeneratedThroughput:mean 1500.7982004690793
scalar SingleCell.server.app[42] voIPGeneratedThroughput:mean 1516.8663932152167
scalar SingleCell.server.app[43] voIPGeneratedThroughput:mean 976.03962130288471
scalar SingleCell.server.app[44] voIPGeneratedThroughput:mean 1399.2520954065717
scalar SingleCell.server.app[45] voIPGeneratedThroughput:mean 1072.9051025102694
scalar SingleCell.server.app[46] voIPGeneratedThroughput:mean 1586.8542895872436
scalar SingleCell.server.app[47] voIPGeneratedThroughput:mean 1505.7271120344731
scalar SingleCell.server.app[48] voIPGeneratedThroughput:mean 1134.1423487885249
scalar SingleCell.server.app[49] voIPGeneratedThroughput:mean 1893.1147503719535
scalar SingleCell.router.lo[0].lo rcvdPkFromHl:count 0
scalar SingleCell.router.lo[0].lo rcvdPkFromHl:sum(packetBytes) 0
scalar SingleCell.router.lo[0].lo passedUpPk:count 0
scalar SingleCell.router.lo[0].lo passedUpPk:sum(packetBytes) 0
scalar SingleCell.router.lo[0] packetDropInterfaceDown:count 0
scalar SingleCell.router.lo[0] packetDropInterfaceDown:sum(packetBytes) 0
scalar SingleCell.router.lo[0] packetDropNoCarrier:count 0
scalar SingleCell.router.lo[0] packetDropNoCarrier:sum(packetBytes) 0
scalar SingleCell.router.ppp[0].queue queueLength:last 0
scalar SingleCell.router.ppp[0].queue queueLength:max 0
scalar SingleCell.router.ppp[0].queue queueLength:timeavg 0
scalar SingleCell.router.ppp[0].queue queueBitLength:last 0
scalar SingleCell.router.ppp[0].queue queueBitLength:max 0
scalar SingleCell.router.ppp[0].queue queueBitLength:timeavg 0
scalar SingleCell.router.ppp[0].queue outgoingPackets:count 16522
scalar SingleCell.router.ppp[0].queue outgoingPacketLengths:sum 8987968
scalar SingleCell.router.ppp[0].queue incomingPackets:count 16522
scalar SingleCell.router.ppp[0].queue incomingPacketLengths:sum 8987968
scalar SingleCell.router.ppp[0].queue droppedPacketsQueueOverflow:count 0
scalar SingleCell.router.ppp[0].queue droppedPacketLengthsQueueOverflow:sum 0
scalar SingleCell.router.ppp[0].ppp transmissionState:timeavg 4.9565999999992471e-05
scalar SingleCell.router.ppp[0].ppp rxPkOk:count 16872
scalar SingleCell.router.ppp[0].ppp rxPkOk:sum(packetBytes) 1265400
scalar SingleCell.router.ppp[0].ppp txPk:count 16522
scalar SingleCell.router.ppp[0].ppp txPk:sum(packetBytes) 1239150
scalar SingleCell.router.ppp[0].ppp rcvdPkFromHl:count 16522
scalar SingleCell.router.ppp[0].ppp rcvdPkFromHl:sum(packetBytes) 1123496
scalar SingleCell.router.ppp[0].ppp passedUpPk:count 16872
scalar SingleCell.router.ppp[0].ppp passedUpPk:sum(packetBytes) 1147296
scalar SingleCell.router.ppp[0].ppp packetDropIncorrectlyReceived:count 0
scalar SingleCell.router.ppp[0].ppp packetDropIncorrectlyReceived:sum(packetBytes) 0
scalar SingleCell.router.ppp[0].ppp packetDropInterfaceDown:count 0
scalar SingleCell.router.ppp[0].ppp packetDropInterfaceDown:sum(packetBytes) 0
scalar SingleCell.router.ppp[0] packetDropInterfaceDown:count 0
scalar SingleCell.router.ppp[0] packetDropInterfaceDown:sum(packetBytes) 0
scalar SingleCell.router.ppp[0] packetDropNoCarrier:count 0
scalar SingleCell.router.ppp[0] packetDropNoCarrier:sum(packetBytes) 0
scalar SingleCell.router.ppp[1].queue queueLength:last 0
scalar SingleCell.router.ppp[1].queue queueLength:max 0
scalar SingleCell.router.ppp[1].queue queueLength:timeavg 0
scalar SingleCell.router.ppp[1].queue queueBitLength:last 0
scalar SingleCell.router.ppp[1].queue queueBitLength:max 0
scalar SingleCell.router.ppp[1].queue queueBitLength:timeavg 0
scalar SingleCell.router.ppp[1].queue outgoingPackets:count 16872
scalar SingleCell.router.ppp[1].queue outgoingPacketLengths:sum 9178368
scalar SingleCell.router.ppp[1].queue incomingPackets:count 16872
scalar SingleCell.router.ppp[1].queue incomingPacketLengths:sum 9178368
scalar SingleCell.router.ppp[1].queue droppedPacketsQueueOverflow:count 0
scalar SingleCell.router.ppp[1].queue droppedPacketLengthsQueueOverflow:sum 0
scalar SingleCell.router.ppp[1].ppp transmissionState:timeavg 5.0615999999993825e-05
scalar SingleCell.router.ppp[1].ppp rxPkOk:count 16522
scalar SingleCell.router.ppp[1].ppp rxPkOk:sum(packetBytes) 1239150
scalar SingleCell.router.ppp[1].ppp txPk:count 16872
scalar SingleCell.router.ppp[1].ppp txPk:sum(packetBytes) 1265400
scalar SingleCell.router.ppp[1].ppp rcvdPkFromHl:count 16872
scalar SingleCell.router.ppp[1].ppp rcvdPkFromHl:sum(packetBytes) 1147296
scalar SingleCell.router.ppp[1].ppp passedUpPk:count 16522
scalar SingleCell.router.ppp[1].ppp passedUpPk:sum(packetBytes) 1123496
scalar SingleCell.router.ppp[1].ppp packetDropIncorrectlyReceived:count 0
scalar SingleCell.router.ppp[1].ppp packetDropIncorrectlyReceived:sum(packetBytes) 0
scalar SingleCell.router.ppp[1].ppp packetDropInterfaceDown:count 0
scalar SingleCell.router.ppp[1].ppp packetDropInterfaceDown:sum(packetBytes) 0
scalar SingleCell.router.ppp[1] packetDropInterfaceDown:count 0
scalar SingleCell.router.ppp[1] packetDropInterfaceDown:sum(packetBytes) 0
scalar SingleCell.router.ppp[1] packetDropNoCarrier:count 0
scalar SingleCell.router.ppp[1] packetDropNoCarrier:sum(packetBytes) 0
scalar SingleCell.router.ipv4.ip packetDropAddressResolutionFailed:count 0
scalar SingleCell.router.ipv4.ip packetDropAddressResolutionFailed:sum(packetBytes) 0
scalar SingleCell.router.ipv4.ip packetDropHopLimitReached:count 0
scalar SingleCell.router.ipv4.ip packetDropHopLimitReached:sum(packetBytes) 0
scalar SingleCell.router.ipv4.ip packetDropForwardingDisabled:count 0
scalar SingleCell.router.ipv4.ip packetDropForwardingDisabled:sum(packetBytes) 0
scalar SingleCell.router.ipv4.ip packetDropNoInterfaceFound:count 0
scalar SingleCell.router.ipv4.ip packetDropNoInterfaceFound:sum(packetBytes) 0
scalar SingleCell.router.ipv4.ip packetDropNoRouteFound:count 0
scalar SingleCell.router.ipv4.ip packetDropNoRouteFound:sum(packetBytes) 0
scalar SingleCell.router.ipv4.ip packetDropUndefined:count 0
scalar SingleCell.router.ipv4.ip packetDropUndefined:sum(packetBytes) 0
scalar SingleCell.router.ipv4.arp arpResolutionFailed:count 0
scalar SingleCell.router.ipv4.arp arpResolutionCompleted:count 0
scalar SingleCell.router.ipv4.arp arpResolutionInitiated:count 0
scalar SingleCell.router.ipv4.arp arpReplySent:count 0
scalar SingleCell.router.ipv4.arp arpReplySent:sum(packetBytes) 0
scalar SingleCell.router.ipv4.arp arpRequestSent:count 0
scalar SingleCell.router.ipv4.arp arpRequestSent:sum(packetBytes) 0
scalar SingleCell.pgw.lo[0].lo rcvdPkFromHl:count 0
scalar SingleCell.pgw.lo[0].lo rcvdPkFromHl:sum(packetBytes) 0
scalar SingleCell.pgw.lo[0].lo passedUpPk:count 0
scalar SingleCell.pgw.lo[0].lo passedUpPk:sum(packetBytes) 0
scalar SingleCell.pgw.lo[0] packetDropInterfaceDown:count 0
scalar SingleCell.pgw.lo[0] packetDropInterfaceDown:sum(packetBytes) 0
scalar SingleCell.pgw.lo[0] packetDropNoCarrier:count 0
scalar SingleCell.pgw.lo[0] packetDropNoCarrier:sum(packetBytes) 0
scalar SingleCell.pgw.ppp[0].queue queueLength:last 0
scalar SingleCell.pgw.ppp[0].queue queueLength:max 0
scalar SingleCell.pgw.ppp[0].queue queueLength:timeavg 0
scalar SingleCell.pgw.ppp[0].queue queueBitLength:last 0
scalar SingleCell.pgw.ppp[0].queue queueBitLength:max 0
scalar SingleCell.pgw.ppp[0].queue queueBitLength:timeavg 0
scalar SingleCell.pgw.ppp[0].queue outgoingPackets:count 16872
scalar SingleCell.pgw.ppp[0].queue outgoingPacketLengths:sum 14037504
scalar SingleCell.pgw.ppp[0].queue incomingPackets:count 16872
scalar SingleCell.pgw.ppp[0].queue incomingPacketLengths:sum 14037504
scalar SingleCell.pgw.ppp[0].queue droppedPacketsQueueOverflow:count 0
scalar SingleCell.pgw.ppp[0].queue droppedPacketLengthsQueueOverflow:sum 0
scalar SingleCell.pgw.ppp[0].ppp transmissionState:timeavg 7.4911679999983854e-05
scalar SingleCell.pgw.ppp[0].ppp rxPkOk:count 16522
scalar SingleCell.pgw.ppp[0].ppp rxPkOk:sum(packetBytes) 1833942
scalar SingleCell.pgw.ppp[0].ppp txPk:count 16872
scalar SingleCell.pgw.ppp[0].ppp txPk:sum(packetBytes) 1872792
scalar SingleCell.pgw.ppp[0].ppp rcvdPkFromHl:count 16872
scalar SingleCell.pgw.ppp[0].ppp rcvdPkFromHl:sum(packetBytes) 1754688
scalar SingleCell.pgw.ppp[0].ppp passedUpPk:count 16522
scalar SingleCell.pgw.ppp[0].ppp passedUpPk:sum(packetBytes) 1718288
scalar SingleCell.pgw.ppp[0].ppp packetDropIncorrectlyReceived:count 0
scalar SingleCell.pgw.ppp[0].ppp packetDropIncorrectlyReceived:sum(packetBytes) 0
scalar SingleCell.pgw.ppp[0].ppp packetDropInterfaceDown:count 0
scalar SingleCell.pgw.ppp[0].ppp packetDropInterfaceDown:sum(packetBytes) 0
scalar SingleCell.pgw.ppp[0] packetDropInterfaceDown:count 0
scalar SingleCell.pgw.ppp[0] packetDropInterfaceDown:sum(packetBytes) 0
scalar SingleCell.pgw.ppp[0] packetDropNoCarrier:count 0
scalar SingleCell.pgw.ppp[0] packetDropNoCarrier:sum(packetBytes) 0
scalar SingleCell.pgw.ipv4.ip packetDropAddressResolutionFailed:count 0
scalar SingleCell.pgw.ipv4.ip packetDropAddressResolutionFailed:sum(packetBytes) 0
scalar SingleCell.pgw.ipv4.ip packetDropHopLimitReached:count 0
scalar SingleCell.pgw.ipv4.ip packetDropHopLimitReached:sum(packetBytes) 0
scalar SingleCell.pgw.ipv4.ip packetDropForwardingDisabled:count 0
scalar SingleCell.pgw.ipv4.ip packetDropForwardingDisabled:sum(packetBytes) 0
scalar SingleCell.pgw.ipv4.ip packetDropNoInterfaceFound:count 0
scalar SingleCell.pgw.ipv4.ip packetDropNoInterfaceFound:sum(packetBytes) 0
scalar SingleCell.pgw.ipv4.ip packetDropNoRouteFound:count 0
scalar SingleCell.pgw.ipv4.ip packetDropNoRouteFound:sum(packetBytes) 0
scalar SingleCell.pgw.ipv4.ip packetDropUndefined:count 0
scalar SingleCell.pgw.ipv4.ip packetDropUndefined:sum(packetBytes) 0
scalar SingleCell.pgw.ipv4.arp arpResolutionFailed:count 0
scalar SingleCell.pgw.ipv4.arp arpResolutionCompleted:count 0
scalar SingleCell.pgw.ipv4.arp arpResolutionInitiated:count 0
scalar SingleCell.pgw.ipv4.arp arpReplySent:count 0
scalar SingleCell.pgw.ipv4.arp arpReplySent:sum(packetBytes) 0
scalar SingleCell.pgw.ipv4.arp arpRequestSent:count 0
scalar SingleCell.pgw.ipv4.arp arpRequestSent:sum(packetBytes) 0
scalar SingleCell.pgw.pppIf.queue queueLength:last 0
scalar SingleCell.pgw.pppIf.queue queueLength:max 0
scalar SingleCell.pgw.pppIf.queue queueLength:timeavg 0
scalar SingleCell.pgw.pppIf.queue queueBitLength:last 0
scalar SingleCell.pgw.pppIf.queue queueBitLength:max 0
scalar SingleCell.pgw.pppIf.queue queueBitLength:timeavg 0
scalar SingleCell.pgw.pppIf.queue outgoingPackets:count 16522
scalar SingleCell.pgw.pppIf.queue outgoingPacketLengths:sum 8987968
scalar SingleCell.pgw.pppIf.queue incomingPackets:count 16522
scalar SingleCell.pgw.pppIf.queue incomingPacketLengths:sum 8987968
scalar SingleCell.pgw.pppIf.queue droppedPacketsQueueOverflow:count 0
scalar SingleCell.pgw.pppIf.queue droppedPacketLengthsQueueOverflow:sum 0
scalar SingleCell.pgw.pppIf.ppp transmissionState:timeavg 4.9565999999992471e-05
scalar SingleCell.pgw.pppIf.ppp rxPkOk:count 16872
scalar SingleCell.pgw.pppIf.ppp rxPkOk:sum(packetBytes) 1265400
scalar SingleCell.pgw.pppIf.ppp txPk:count 16522
scalar SingleCell.pgw.pppIf.ppp txPk:sum(packetBytes) 1239150
scalar SingleCell.pgw.pppIf.ppp rcvdPkFromHl:count 16522
scalar SingleCell.pgw.pppIf.ppp rcvdPkFromHl:sum(packetBytes) 1123496
scalar SingleCell.pgw.pppIf.ppp passedUpPk:count 16872
scalar SingleCell.pgw.pppIf.ppp passedUpPk:sum(packetBytes) 1147296
scalar SingleCell.pgw.pppIf.ppp packetDropIncorrectlyReceived:count 0
scalar SingleCell.pgw.pppIf.ppp packetDropIncorrectlyReceived:sum(packetBytes) 0
scalar SingleCell.pgw.pppIf.ppp packetDropInterfaceDown:count 0
scalar SingleCell.pgw.pppIf.ppp packetDropInterfaceDown:sum(packetBytes) 0
scalar SingleCell.pgw.pppIf packetDropInterfaceDown:count 0
scalar SingleCell.pgw.pppIf packetDropInterfaceDown:sum(packetBytes) 0
scalar SingleCell.pgw.pppIf packetDropNoCarrier:count 0
scalar SingleCell.pgw.pppIf packetDropNoCarrier:sum(packetBytes) 0
scalar SingleCell.pgw.udp packetReceived:count 16522
scalar SingleCell.pgw.udp packetReceived:sum(packetBytes) 1387848
scalar SingleCell.pgw.udp packetSent:count 16872
scalar SingleCell.pgw.udp packetSent:sum(packetBytes) 1417248
scalar SingleCell.pgw.udp passedUpPk:count 16522
scalar SingleCell.pgw.udp droppedPkWrongPort:count 0
scalar SingleCell.pgw.udp droppedPkBadChecksum:count 0
scalar SingleCell.eNB.cellularNic.pdcp sentPacketToLowerLayer:count 16872
scalar SingleCell.eNB.cellularNic.pdcp sentPacketToLowerLayer:sum(packetBytes) 1164168
scalar SingleCell.eNB.cellularNic.pdcp sentPacketToUpperLayer:count 16523
scalar SingleCell.eNB.cellularNic.pdcp sentPacketToUpperLayer:sum(packetBytes) 1123564
scalar SingleCell.eNB.cellularNic.pdcp receivedPacketFromLowerLayer:count 16523
scalar SingleCell.eNB.cellularNic.pdcp receivedPacketFromLowerLayer:sum(packetBytes) 1140087
scalar SingleCell.eNB.cellularNic.pdcp receivedPacketFromUpperLayer:count 16872
scalar SingleCell.eNB.cellularNic.pdcp receivedPacketFromUpperLayer:sum(packetBytes) 1147296
scalar SingleCell.eNB.cellularNic.rlc.tm rlcPacketLossUl:mean -nan
scalar SingleCell.eNB.cellularNic.rlc.tm rlcPacketLossUl:sum 0
scalar SingleCell.eNB.cellularNic.rlc.tm rlcPacketLossDl:mean -nan
scalar SingleCell.eNB.cellularNic.rlc.tm rlcPacketLossDl:sum 0
scalar SingleCell.eNB.cellularNic.rlc.tm sentPacketToLowerLayer:count 0
scalar SingleCell.eNB.cellularNic.rlc.tm sentPacketToLowerLayer:sum(packetBytes) 0
scalar SingleCell.eNB.cellularNic.rlc.tm sentPacketToUpperLayer:count 0
scalar SingleCell.eNB.cellularNic.rlc.tm sentPacketToUpperLayer:sum(packetBytes) 0
scalar SingleCell.eNB.cellularNic.rlc.tm receivedPacketFromLowerLayer:count 0
scalar SingleCell.eNB.cellularNic.rlc.tm receivedPacketFromLowerLayer:sum(packetBytes) 0
scalar SingleCell.eNB.cellularNic.rlc.tm receivedPacketFromUpperLayer:count 0
scalar SingleCell.eNB.cellularNic.rlc.tm receivedPacketFromUpperLayer:sum(packetBytes) 0
scalar SingleCell.eNB.cellularNic.rlc.um rlcPacketLossTotal:mean -nan
scalar SingleCell.eNB.cellularNic.rlc.um rlcCellThroughputUl:mean 122228.21361919875
scalar SingleCell.eNB.cellularNic.rlc.um rlcCellThroughputDl:mean 122361.68104882665
scalar SingleCell.eNB.cellularNic.rlc.um rlcPduThroughputUl:mean -nan
scalar SingleCell.eNB.cellularNic.rlc.um rlcPduThroughputDl:mean -nan
scalar SingleCell.eNB.cellularNic.rlc.um rlcPduDelayUl:mean -nan
scalar SingleCell.eNB.cellularNic.rlc.um rlcPduDelayDl:mean -nan
scalar SingleCell.eNB.cellularNic.rlc.um rlcThroughputUl:mean -nan
scalar SingleCell.eNB.cellularNic.rlc.um rlcThroughputDl:mean -nan
scalar SingleCell.eNB.cellularNic.rlc.um rlcDelayUl:mean -nan
scalar SingleCell.eNB.cellularNic.rlc.um rlcDelayDl:mean -nan
scalar SingleCell.eNB.cellularNic.rlc.um rlcPduPacketLossUl:mean -nan
scalar SingleCell.eNB.cellularNic.rlc.um rlcPduPacketLossDl:mean -nan
scalar SingleCell.eNB.cellularNic.rlc.um rlcPacketLossUl:mean -nan
scalar SingleCell.eNB.cellularNic.rlc.um rlcPacketLossUl:sum 0
scalar SingleCell.eNB.cellularNic.rlc.um rlcPacketLossDl:mean -nan
scalar SingleCell.eNB.cellularNic.rlc.um rlcPacketLossDl:sum 0
scalar SingleCell.eNB.cellularNic.rlc.um rlcCellPacketLossUl:mean 0
scalar SingleCell.eNB.cellularNic.rlc.um rlcCellPacketLossDl:mean 0
scalar SingleCell.eNB.cellularNic.rlc.um sentPacketToLowerLayer:count 16872
scalar SingleCell.eNB.cellularNic.rlc.um sentPacketToLowerLayer:sum(packetBytes) 1197912
scalar SingleCell.eNB.cellularNic.rlc.um sentPacketToUpperLayer:count 16523
scalar SingleCell.eNB.cellularNic.rlc.um sentPacketToUpperLayer:sum(packetBytes) 1140087
scalar SingleCell.eNB.cellularNic.rlc.um receivedPacketFromLowerLayer:count 16523
scalar SingleCell.eNB.cellularNic.rlc.um receivedPacketFromLowerLayer:sum(packetBytes) 1173133
scalar SingleCell.eNB.cellularNic.rlc.um receivedPacketFromUpperLayer:count 16872
scalar SingleCell.eNB.cellularNic.rlc.um receivedPacketFromUpperLayer:sum(packetBytes) 1164168
scalar SingleCell.eNB.cellularNic.rlc.am rlcPacketLossTotal:mean -nan
scalar SingleCell.eNB.cellularNic.rlc.am rlcCellThroughputUl:mean -nan
scalar SingleCell.eNB.cellularNic.rlc.am rlcCellThroughputDl:mean -nan
scalar SingleCell.eNB.cellularNic.rlc.am rlcPduThroughputUl:mean -nan
scalar SingleCell.eNB.cellularNic.rlc.am rlcPduThroughputDl:mean -nan
scalar SingleCell.eNB.cellularNic.rlc.am rlcPduDelayUl:mean -nan
scalar SingleCell.eNB.cellularNic.rlc.am rlcPduDelayDl:mean -nan
scalar SingleCell.eNB.cellularNic.rlc.am rlcThroughputUl:mean -nan
scalar SingleCell.eNB.cellularNic.rlc.am rlcThroughputDl:mean -nan
scalar SingleCell.eNB.cellularNic.rlc.am rlcDelayUl:mean -nan
scalar SingleCell.eNB.cellularNic.rlc.am rlcDelayDl:mean -nan
scalar SingleCell.eNB.cellularNic.rlc.am rlcPduPacketLossUl:mean -nan
scalar SingleCell.eNB.cellularNic.rlc.am rlcPduPacketLossDl:mean -nan
scalar SingleCell.eNB.cellularNic.rlc.am rlcPacketLossUl:mean -nan
scalar SingleCell.eNB.cellularNic.rlc.am rlcPacketLossDl:mean -nan
scalar SingleCell.eNB.cellularNic.rlc.am rlcCellPacketLossUl:mean -nan
scalar SingleCell.eNB.cellularNic.rlc.am rlcCellPacketLossDl:mean -nan
scalar SingleCell.eNB.cellularNic.mac avgServedBlocksUl:mean 0.82635000000000003
scalar SingleCell.eNB.cellularNic.mac avgServedBlocksDl:mean 0.84360000000000002
scalar SingleCell.eNB.cellularNic.mac harqTxAttemptsUl:mean -nan
scalar SingleCell.eNB.cellularNic.mac harqTxAttemptsDl:mean -nan
scalar SingleCell.eNB.cellularNic.mac harqErrorRate_4th_Ul:mean -nan
scalar SingleCell.eNB.cellularNic.mac harqErrorRate_4th_Dl:mean -nan
scalar SingleCell.eNB.cellularNic.mac harqErrorRate_3rd_Ul:mean -nan
scalar SingleCell.eNB.cellularNic.mac harqErrorRate_3rd_Dl:mean -nan
scalar SingleCell.eNB.cellularNic.mac harqErrorRate_2nd_Ul:mean -nan
scalar SingleCell.eNB.cellularNic.mac harqErrorRate_2nd_Dl:mean -nan
scalar SingleCell.eNB.cellularNic.mac harqErrorRate_1st_Ul:mean -nan
scalar SingleCell.eNB.cellularNic.mac harqErrorRate_1st_Dl:mean -nan
scalar SingleCell.eNB.cellularNic.mac harqErrorRateUl:mean -nan
scalar SingleCell.eNB.cellularNic.mac harqErrorRateDl:mean -nan
scalar SingleCell.eNB.cellularNic.mac macCellPacketLossUl:mean 0
scalar SingleCell.eNB.cellularNic.mac macCellPacketLossDl:mean 0
scalar SingleCell.eNB.cellularNic.mac macPacketLossUl:mean -nan
scalar SingleCell.eNB.cellularNic.mac macPacketLossDl:mean -nan
scalar SingleCell.eNB.cellularNic.mac macThroughputUl:mean -nan
scalar SingleCell.eNB.cellularNic.mac macThroughputDl:mean -nan
scalar SingleCell.eNB.cellularNic.mac macDelayUl:mean -nan
scalar SingleCell.eNB.cellularNic.mac macDelayDl:mean -nan
scalar SingleCell.eNB.cellularNic.mac macCellThroughputUl:mean 129313.90716234011
scalar SingleCell.eNB.cellularNic.mac macCellThroughputDl:mean 129455.11183426659
scalar SingleCell.eNB.cellularNic.mac sentPacketToLowerLayer:count 66450
scalar SingleCell.eNB.cellularNic.mac sentPacketToLowerLayer:sum(packetBytes) 1281234
scalar SingleCell.eNB.cellularNic.mac sentPacketToUpperLayer:count 33395
scalar SingleCell.eNB.cellularNic.mac sentPacketToUpperLayer:sum(packetBytes) 1190005
scalar SingleCell.eNB.cellularNic.mac receivedPacketFromLowerLayer:count 133269
scalar SingleCell.eNB.cellularNic.mac receivedPacketFromLowerLayer:sum(packetBytes) 1323141
scalar SingleCell.eNB.cellularNic.mac receivedPacketFromUpperLayer:count 33744
scalar SingleCell.eNB.cellularNic.mac receivedPacketFromUpperLayer:sum(packetBytes) 2395824
scalar SingleCell.eNB.cellularNic.mac macBufferOverFlowD2D:mean -nan
scalar SingleCell.eNB.cellularNic.mac macBufferOverFlowUl:mean -nan
scalar SingleCell.eNB.cellularNic.mac macBufferOverFlowDl:mean -nan
scalar SingleCell.eNB.cellularNic.channelModel[0] measuredSinrUl:mean -nan
scalar SingleCell.eNB.cellularNic.channelModel[0] measuredSinrDl:mean -nan
scalar SingleCell.eNB.cellularNic.channelModel[0] rcvdSinrD2D:mean -nan
scalar SingleCell.eNB.cellularNic.channelModel[0] rcvdSinrUl:mean -nan
scalar SingleCell.eNB.cellularNic.channelModel[0] rcvdSinrDl:mean -nan
scalar SingleCell.eNB.cellularNic packetDropInterfaceDown:count 0
scalar SingleCell.eNB.cellularNic packetDropInterfaceDown:sum(packetBytes) 0
scalar SingleCell.eNB.cellularNic packetDropNoCarrier:count 0
scalar SingleCell.eNB.cellularNic packetDropNoCarrier:sum(packetBytes) 0
scalar SingleCell.eNB.pppIf.queue queueLength:last 0
scalar SingleCell.eNB.pppIf.queue queueLength:max 4
scalar SingleCell.eNB.pppIf.queue queueLength:timeavg 2.9801279999999696e-05
scalar SingleCell.eNB.pppIf.queue queueBitLength:last 0
scalar SingleCell.eNB.pppIf.queue queueBitLength:max 3328
scalar SingleCell.eNB.pppIf.queue queueBitLength:timeavg 0.024794664959998609
scalar SingleCell.eNB.pppIf.queue outgoingPackets:count 16523
scalar SingleCell.eNB.pppIf.queue outgoingPacketLengths:sum 13747136
scalar SingleCell.eNB.pppIf.queue incomingPackets:count 16523
scalar SingleCell.eNB.pppIf.queue incomingPacketLengths:sum 13747136
scalar SingleCell.eNB.pppIf.queue droppedPacketsQueueOverflow:count 0
scalar SingleCell.eNB.pppIf.queue droppedPacketLengthsQueueOverflow:sum 0
scalar SingleCell.eNB.pppIf.ppp transmissionState:timeavg 7.335767999998519e-05
scalar SingleCell.eNB.pppIf.ppp rxPkOk:count 16872
scalar SingleCell.eNB.pppIf.ppp rxPkOk:sum(packetBytes) 1872792
scalar SingleCell.eNB.pppIf.ppp txPk:count 16523
scalar SingleCell.eNB.pppIf.ppp txPk:sum(packetBytes) 1834053
scalar SingleCell.eNB.pppIf.ppp rcvdPkFromHl:count 16523
scalar SingleCell.eNB.pppIf.ppp rcvdPkFromHl:sum(packetBytes) 1718392
scalar SingleCell.eNB.pppIf.ppp passedUpPk:count 16872
scalar SingleCell.eNB.pppIf.ppp passedUpPk:sum(packetBytes) 1754688
scalar SingleCell.eNB.pppIf.ppp packetDropIncorrectlyReceived:count 0
scalar SingleCell.eNB.pppIf.ppp packetDropIncorrectlyReceived:sum(packetBytes) 0
scalar SingleCell.eNB.pppIf.ppp packetDropInterfaceDown:count 0
scalar SingleCell.eNB.pppIf.ppp packetDropInterfaceDown:sum(packetBytes) 0
scalar SingleCell.eNB.pppIf packetDropInterfaceDown:count 0
scalar SingleCell.eNB.pppIf packetDropInterfaceDown:sum(packetBytes) 0
scalar SingleCell.eNB.pppIf packetDropNoCarrier:count 0
scalar SingleCell.eNB.pppIf packetDropNoCarrier:sum(packetBytes) 0
scalar SingleCell.eNB.pppMEHostIf.queue queueLength:last 0
scalar SingleCell.eNB.pppMEHostIf.queue queueLength:max 0
scalar SingleCell.eNB.pppMEHostIf.queue queueLength:timeavg 0
scalar SingleCell.eNB.pppMEHostIf.queue queueBitLength:last 0
scalar SingleCell.eNB.pppMEHostIf.queue queueBitLength:max 0
scalar SingleCell.eNB.pppMEHostIf.queue queueBitLength:timeavg 0
scalar SingleCell.eNB.pppMEHostIf.queue outgoingPackets:count 0
scalar SingleCell.eNB.pppMEHostIf.queue outgoingPacketLengths:sum 0
scalar SingleCell.eNB.pppMEHostIf.queue incomingPackets:count 0
scalar SingleCell.eNB.pppMEHostIf.queue incomingPacketLengths:sum 0
scalar SingleCell.eNB.pppMEHostIf.queue droppedPacketsQueueOverflow:count 0
scalar SingleCell.eNB.pppMEHostIf.queue droppedPacketLengthsQueueOverflow:sum 0
scalar SingleCell.eNB.pppMEHostIf.ppp transmissionState:timeavg 0
scalar SingleCell.eNB.pppMEHostIf.ppp rxPkOk:count 0
scalar SingleCell.eNB.pppMEHostIf.ppp rxPkOk:sum(packetBytes) 0
scalar SingleCell.eNB.pppMEHostIf.ppp txPk:count 0
scalar SingleCell.eNB.pppMEHostIf.ppp txPk:sum(packetBytes) 0
scalar SingleCell.eNB.pppMEHostIf.ppp rcvdPkFromHl:count 0
scalar SingleCell.eNB.pppMEHostIf.ppp rcvdPkFromHl:sum(packetBytes) 0
scalar SingleCell.eNB.pppMEHostIf.ppp passedUpPk:count 0
scalar SingleCell.eNB.pppMEHostIf.ppp passedUpPk:sum(packetBytes) 0
scalar SingleCell.eNB.pppMEHostIf.ppp packetDropIncorrectlyReceived:count 0
scalar SingleCell.eNB.pppMEHostIf.ppp packetDropIncorrectlyReceived:sum(packetBytes) 0
scalar SingleCell.eNB.pppMEHostIf.ppp packetDropInterfaceDown:count 0
scalar SingleCell.eNB.pppMEHostIf.ppp packetDropInterfaceDown:sum(packetBytes) 0
scalar SingleCell.eNB.pppMEHostIf packetDropInterfaceDown:count 0
scalar SingleCell.eNB.pppMEHostIf packetDropInterfaceDown:sum(packetBytes) 0
scalar SingleCell.eNB.pppMEHostIf packetDropNoCarrier:count 0
scalar SingleCell.eNB.pppMEHostIf packetDropNoCarrier:sum(packetBytes) 0
scalar SingleCell.eNB.ipv4.ip packetDropAddressResolutionFailed:count 0
scalar SingleCell.eNB.ipv4.ip packetDropAddressResolutionFailed:sum(packetBytes) 0
scalar SingleCell.eNB.ipv4.ip packetDropHopLimitReached:count 0
scalar SingleCell.eNB.ipv4.ip packetDropHopLimitReached:sum(packetBytes) 0
scalar SingleCell.eNB.ipv4.ip packetDropForwardingDisabled:count 0
scalar SingleCell.eNB.ipv4.ip packetDropForwardingDisabled:sum(packetBytes) 0
scalar SingleCell.eNB.ipv4.ip packetDropNoInterfaceFound:count 0
scalar SingleCell.eNB.ipv4.ip packetDropNoInterfaceFound:sum(packetBytes) 0
scalar SingleCell.eNB.ipv4.ip packetDropNoRouteFound:count 0
scalar SingleCell.eNB.ipv4.ip packetDropNoRouteFound:sum(packetBytes) 0
scalar SingleCell.eNB.ipv4.ip packetDropUndefined:count 0
scalar SingleCell.eNB.ipv4.ip packetDropUndefined:sum(packetBytes) 0
scalar SingleCell.eNB.ipv4.arp arpResolutionFailed:count 0
scalar SingleCell.eNB.ipv4.arp arpResolutionCompleted:count 0
scalar SingleCell.eNB.ipv4.arp arpResolutionInitiated:count 0
scalar SingleCell.eNB.ipv4.arp arpReplySent:count 0
scalar SingleCell.eNB.ipv4.arp arpReplySent:sum(packetBytes) 0
scalar SingleCell.eNB.ipv4.arp arpRequestSent:count 0
scalar SingleCell.eNB.ipv4.arp arpRequestSent:sum(packetBytes) 0
scalar SingleCell.eNB.udp packetReceived:count 16872
scalar SingleCell.eNB.udp packetReceived:sum(packetBytes) 1417248
scalar SingleCell.eNB.udp packetSent:count 16523
scalar SingleCell.eNB.udp packetSent:sum(packetBytes) 1387932
scalar SingleCell.eNB.udp passedUpPk:count 16872
scalar SingleCell.eNB.udp droppedPkWrongPort:count 0
scalar SingleCell.eNB.udp droppedPkBadChecksum:count 0
scalar SingleCell.ue[0].lo[0].lo rcvdPkFromHl:count 0
scalar SingleCell.ue[0].lo[0].lo rcvdPkFromHl:sum(packetBytes) 0
scalar SingleCell.ue[0].lo[0].lo passedUpPk:count 0
scalar SingleCell.ue[0].lo[0].lo passedUpPk:sum(packetBytes) 0
scalar SingleCell.ue[0].lo[0] packetDropInterfaceDown:count 0
scalar SingleCell.ue[0].lo[0] packetDropInterfaceDown:sum(packetBytes) 0
scalar SingleCell.ue[0].lo[0] packetDropNoCarrier:count 0
scalar SingleCell.ue[0].lo[0] packetDropNoCarrier:sum(packetBytes) 0
scalar SingleCell.ue[0].cellularNic.pdcp sentPacketToLowerLayer:count 774
scalar SingleCell.ue[0].cellularNic.pdcp sentPacketToLowerLayer:sum(packetBytes) 53406
scalar SingleCell.ue[0].cellularNic.pdcp sentPacketToUpperLayer:count 754
scalar SingleCell.ue[0].cellularNic.pdcp sentPacketToUpperLayer:sum(packetBytes) 51272
scalar SingleCell.ue[0].cellularNic.pdcp receivedPacketFromLowerLayer:count 754
scalar SingleCell.ue[0].cellularNic.pdcp receivedPacketFromLowerLayer:sum(packetBytes) 52026
scalar SingleCell.ue[0].cellularNic.pdcp receivedPacketFromUpperLayer:count 774
scalar SingleCell.ue[0].cellularNic.pdcp receivedPacketFromUpperLayer:sum(packetBytes) 52632
scalar SingleCell.ue[0].cellularNic.rlc.tm rlcPacketLossUl:mean -nan
scalar SingleCell.ue[0].cellularNic.rlc.tm rlcPacketLossUl:sum 0
scalar SingleCell.ue[0].cellularNic.rlc.tm rlcPacketLossDl:mean -nan
scalar SingleCell.ue[0].cellularNic.rlc.tm rlcPacketLossDl:sum 0
scalar SingleCell.ue[0].cellularNic.rlc.tm sentPacketToLowerLayer:count 0
scalar SingleCell.ue[0].cellularNic.rlc.tm sentPacketToLowerLayer:sum(packetBytes) 0
scalar SingleCell.ue[0].cellularNic.rlc.tm sentPacketToUpperLayer:count 0
scalar SingleCell.ue[0].cellularNic.rlc.tm sentPacketToUpperLayer:sum(packetBytes) 0
scalar SingleCell.ue[0].cellularNic.rlc.tm receivedPacketFromLowerLayer:count 0
scalar SingleCell.ue[0].cellularNic.rlc.tm receivedPacketFromLowerLayer:sum(packetBytes) 0
scalar SingleCell.ue[0].cellularNic.rlc.tm receivedPacketFromUpperLayer:count 0
scalar SingleCell.ue[0].cellularNic.rlc.tm receivedPacketFromUpperLayer:sum(packetBytes) 0
scalar SingleCell.ue[0].cellularNic.rlc.um rlcPacketLossTotal:mean 0
scalar SingleCell.ue[0].cellularNic.rlc.um rlcCellThroughputUl:mean -nan
scalar SingleCell.ue[0].cellularNic.rlc.um rlcCellThroughputDl:mean -nan
scalar SingleCell.ue[0].cellularNic.rlc.um rlcPduThroughputUl:mean 0
scalar SingleCell.ue[0].cellularNic.rlc.um rlcPduThroughputDl:mean 0
scalar SingleCell.ue[0].cellularNic.rlc.um rlcPduDelayUl:mean 0.0040000000000000027
scalar SingleCell.ue[0].cellularNic.rlc.um rlcPduDelayDl:mean 0.0040000000000000027
scalar SingleCell.ue[0].cellularNic.rlc.um rlcThroughputUl:mean 2672.849527890658
scalar SingleCell.ue[0].cellularNic.rlc.um rlcThroughputDl:mean 2965.9191743193992
scalar SingleCell.ue[0].cellularNic.rlc.um rlcDelayUl:mean 0.0081957297189598505
scalar SingleCell.ue[0].cellularNic.rlc.um rlcDelayDl:mean 0.0046173879614204516
scalar SingleCell.ue[0].cellularNic.rlc.um rlcPduPacketLossUl:mean 0
scalar SingleCell.ue[0].cellularNic.rlc.um rlcPduPacketLossDl:mean 0
scalar SingleCell.ue[0].cellularNic.rlc.um rlcPacketLossUl:mean 0
scalar SingleCell.ue[0].cellularNic.rlc.um rlcPacketLossUl:sum 0
scalar SingleCell.ue[0].cellularNic.rlc.um rlcPacketLossDl:mean 0
scalar SingleCell.ue[0].cellularNic.rlc.um rlcPacketLossDl:sum 0
scalar SingleCell.ue[0].cellularNic.rlc.um rlcCellPacketLossUl:mean -nan
scalar SingleCell.ue[0].cellularNic.rlc.um rlcCellPacketLossDl:mean -nan
scalar SingleCell.ue[0].cellularNic.rlc.um sentPacketToLowerLayer:count 774
scalar SingleCell.ue[0].cellularNic.rlc.um sentPacketToLowerLayer:sum(packetBytes) 54954
scalar SingleCell.ue[0].cellularNic.rlc.um sentPacketToUpperLayer:count 754
scalar SingleCell.ue[0].cellularNic.rlc.um sentPacketToUpperLayer:sum(packetBytes) 52026
scalar SingleCell.ue[0].cellularNic.rlc.um receivedPacketFromLowerLayer:count 754
scalar SingleCell.ue[0].cellularNic.rlc.um receivedPacketFromLowerLayer:sum(packetBytes) 53534
scalar SingleCell.ue[0].cellularNic.rlc.um receivedPacketFromUpperLayer:count 774
scalar SingleCell.ue[0].cellularNic.rlc.um receivedPacketFromUpperLayer:sum(packetBytes) 53406
scalar SingleCell.ue[0].cellularNic.rlc.am rlcPacketLossTotal:mean -nan
scalar SingleCell.ue[0].cellularNic.rlc.am rlcCellThroughputUl:mean -nan
scalar SingleCell.ue[0].cellularNic.rlc.am rlcCellThroughputDl:mean -nan
scalar SingleCell.ue[0].cellularNic.rlc.am rlcPduThroughputUl:mean -nan
scalar SingleCell.ue[0].cellularNic.rlc.am rlcPduThroughputDl:mean -nan
scalar SingleCell.ue[0].cellularNic.rlc.am rlcPduDelayUl:mean -nan
scalar SingleCell.ue[0].cellularNic.rlc.am rlcPduDelayDl:mean -nan
scalar SingleCell.ue[0].cellularNic.rlc.am rlcThroughputUl:mean -nan
scalar SingleCell.ue[0].cellularNic.rlc.am rlcThroughputDl:mean -nan
scalar SingleCell.ue[0].cellularNic.rlc.am rlcDelayUl:mean -nan
scalar SingleCell.ue[0].cellularNic.rlc.am rlcDelayDl:mean -nan
scalar SingleCell.ue[0].cellularNic.rlc.am rlcPduPacketLossUl:mean -nan
scalar SingleCell.ue[0].cellularNic.rlc.am rlcPduPacketLossDl:mean -nan
scalar SingleCell.ue[0].cellularNic.rlc.am rlcPacketLossUl:mean -nan
scalar SingleCell.ue[0].cellularNic.rlc.am rlcPacketLossDl:mean -nan
scalar SingleCell.ue[0].cellularNic.rlc.am rlcCellPacketLossUl:mean -nan
scalar SingleCell.ue[0].cellularNic.rlc.am rlcCellPacketLossDl:mean -nan
scalar SingleCell.ue[0].cellularNic.mac harqTxAttemptsUl:mean 1
scalar SingleCell.ue[0].cellularNic.mac harqTxAttemptsDl:mean 1
scalar SingleCell.ue[0].cellularNic.mac harqErrorRate_4th_Ul:mean -nan
scalar SingleCell.ue[0].cellularNic.mac harqErrorRate_4th_Dl:mean -nan
scalar SingleCell.ue[0].cellularNic.mac harqErrorRate_3rd_Ul:mean -nan
scalar SingleCell.ue[0].cellularNic.mac harqErrorRate_3rd_Dl:mean -nan
scalar SingleCell.ue[0].cellularNic.mac harqErrorRate_2nd_Ul:mean -nan
scalar SingleCell.ue[0].cellularNic.mac harqErrorRate_2nd_Dl:mean -nan
scalar SingleCell.ue[0].cellularNic.mac harqErrorRate_1st_Ul:mean 0
scalar SingleCell.ue[0].cellularNic.mac harqErrorRate_1st_Dl:mean 0
scalar SingleCell.ue[0].cellularNic.mac harqErrorRateUl:mean 0
scalar SingleCell.ue[0].cellularNic.mac harqErrorRateDl:mean 0
scalar SingleCell.ue[0].cellularNic.mac macCellPacketLossUl:mean -nan
scalar SingleCell.ue[0].cellularNic.mac macCellPacketLossDl:mean -nan
scalar SingleCell.ue[0].cellularNic.mac macPacketLossUl:mean 0
scalar SingleCell.ue[0].cellularNic.mac macPacketLossDl:mean 0
scalar SingleCell.ue[0].cellularNic.mac macThroughputUl:mean 2827.7973266089589
scalar SingleCell.ue[0].cellularNic.mac macThroughputDl:mean 3137.8565177581986
scalar SingleCell.ue[0].cellularNic.mac macDelayUl:mean 0.0040000000000000027
scalar SingleCell.ue[0].cellularNic.mac macDelayDl:mean 0.0040000000000000027
scalar SingleCell.ue[0].cellularNic.mac macCellThroughputUl:mean -nan
scalar SingleCell.ue[0].cellularNic.mac macCellThroughputDl:mean -nan
scalar SingleCell.ue[0].cellularNic.mac sentPacketToLowerLayer:count 2302
scalar SingleCell.ue[0].cellularNic.mac sentPacketToLowerLayer:sum(packetBytes) 58030
scalar SingleCell.ue[0].cellularNic.mac sentPacketToUpperLayer:count 1528
scalar SingleCell.ue[0].cellularNic.mac sentPacketToUpperLayer:sum(packetBytes) 54308
scalar SingleCell.ue[0].cellularNic.mac receivedPacketFromLowerLayer:count 3076
scalar SingleCell.ue[0].cellularNic.mac receivedPacketFromLowerLayer:sum(packetBytes) 57364
scalar SingleCell.ue[0].cellularNic.mac receivedPacketFromUpperLayer:count 1548
scalar SingleCell.ue[0].cellularNic.mac receivedPacketFromUpperLayer:sum(packetBytes) 109908
scalar SingleCell.ue[0].cellularNic.mac macBufferOverFlowD2D:mean -nan
scalar SingleCell.ue[0].cellularNic.mac macBufferOverFlowUl:mean -nan
scalar SingleCell.ue[0].cellularNic.mac macBufferOverFlowDl:mean -nan
scalar SingleCell.ue[0].cellularNic.phy distance:mean -nan
scalar SingleCell.ue[0].cellularNic.phy averageCqiUl:mean 15
scalar SingleCell.ue[0].cellularNic.phy averageCqiUl:count 774
scalar SingleCell.ue[0].cellularNic.phy averageCqiDl:mean 15
scalar SingleCell.ue[0].cellularNic.phy averageCqiDl:count 754
scalar SingleCell.ue[0].cellularNic.channelModel[0] measuredSinrUl:mean 52.393425698499676
scalar SingleCell.ue[0].cellularNic.channelModel[0] measuredSinrDl:mean 50.591740905325729
scalar SingleCell.ue[0].cellularNic.channelModel[0] rcvdSinrD2D:mean -nan
scalar SingleCell.ue[0].cellularNic.channelModel[0] rcvdSinrUl:mean 48.631727329011433
scalar SingleCell.ue[0].cellularNic.channelModel[0] rcvdSinrDl:mean 50.907918614802931
scalar SingleCell.ue[0].cellularNic packetDropInterfaceDown:count 0
scalar SingleCell.ue[0].cellularNic packetDropInterfaceDown:sum(packetBytes) 0
scalar SingleCell.ue[0].cellularNic packetDropNoCarrier:count 0
scalar SingleCell.ue[0].cellularNic packetDropNoCarrier:sum(packetBytes) 0
scalar SingleCell.ue[0].encap pauseSent:count 0
scalar SingleCell.ue[0].encap pauseSent:sum 0
scalar SingleCell.ue[0].encap decapPk:count 0
scalar SingleCell.ue[0].encap decapPk:sum(packetBytes) 0
scalar SingleCell.ue[0].encap encapPk:count 0
scalar SingleCell.ue[0].encap encapPk:sum(packetBytes) 0
scalar SingleCell.ue[0].ipv4.ip packetDropAddressResolutionFailed:count 0
scalar SingleCell.ue[0].ipv4.ip packetDropAddressResolutionFailed:sum(packetBytes) 0
scalar SingleCell.ue[0].ipv4.ip packetDropHopLimitReached:count 0
scalar SingleCell.ue[0].ipv4.ip packetDropHopLimitReached:sum(packetBytes) 0
scalar SingleCell.ue[0].ipv4.ip packetDropForwardingDisabled:count 0
scalar SingleCell.ue[0].ipv4.ip packetDropForwardingDisabled:sum(packetBytes) 0
scalar SingleCell.ue[0].ipv4.ip packetDropNoInterfaceFound:count 0
scalar SingleCell.ue[0].ipv4.ip packetDropNoInterfaceFound:sum(packetBytes) 0
scalar SingleCell.ue[0].ipv4.ip packetDropNoRouteFound:count 0
scalar SingleCell.ue[0].ipv4.ip packetDropNoRouteFound:sum(packetBytes) 0
scalar SingleCell.ue[0].ipv4.ip packetDropUndefined:count 0
scalar SingleCell.ue[0].ipv4.ip packetDropUndefined:sum(packetBytes) 0
scalar SingleCell.ue[0].ipv4.arp arpResolutionFailed:count 0
scalar SingleCell.ue[0].ipv4.arp arpResolutionCompleted:count 0
scalar SingleCell.ue[0].ipv4.arp arpResolutionInitiated:count 0
scalar SingleCell.ue[0].ipv4.arp arpReplySent:count 0
scalar SingleCell.ue[0].ipv4.arp arpReplySent:sum(packetBytes) 0
scalar SingleCell.ue[0].ipv4.arp arpRequestSent:count 0
scalar SingleCell.ue[0].ipv4.arp arpRequestSent:sum(packetBytes) 0
scalar SingleCell.ue[0].udp packetReceived:count 754
scalar SingleCell.ue[0].udp packetReceived:sum(packetBytes) 36192
scalar SingleCell.ue[0].udp packetSent:count 774
scalar SingleCell.ue[0].udp packetSent:sum(packetBytes) 37152
scalar SingleCell.ue[0].udp passedUpPk:count 754
scalar SingleCell.ue[0].udp droppedPkWrongPort:count 0
scalar SingleCell.ue[0].udp droppedPkBadChecksum:count 0
scalar SingleCell.ue[0].app[0] voIPReceivedThroughput:mean 1719.373434388059
scalar SingleCell.ue[0].app[0] voIPPlayoutLoss:mean 0
scalar SingleCell.ue[0].app[0] voIPJitter:mean -nan
scalar SingleCell.ue[0].app[0] voIPTaildropLoss:mean 0
scalar SingleCell.ue[0].app[0] voIPMos:mean 4.4092858240000004
scalar SingleCell.ue[0].app[0] voIPPlayoutDelay:mean 0
scalar SingleCell.ue[0].app[0] voIPFrameDelay:mean 0.0046177467614204812
scalar SingleCell.ue[0].app[0] voIPFrameLoss:mean 0
scalar SingleCell.ue[0].app[1] voIPGeneratedThroughput:mean 1557.3392998047673
scalar SingleCell.ue[1].lo[0].lo rcvdPkFromHl:count 0
scalar SingleCell.ue[1].lo[0].lo rcvdPkFromHl:sum(packetBytes) 0
scalar SingleCell.ue[1].lo[0].lo passedUpPk:count 0
scalar SingleCell.ue[1].lo[0].lo passedUpPk:sum(packetBytes) 0
scalar SingleCell.ue[1].lo[0] packetDropInterfaceDown:count 0
scalar SingleCell.ue[1].lo[0] packetDropInterfaceDown:sum(packetBytes) 0
scalar SingleCell.ue[1].lo[0] packetDropNoCarrier:count 0
scalar SingleCell.ue[1].lo[0] packetDropNoCarrier:sum(packetBytes) 0
scalar SingleCell.ue[1].cellularNic.pdcp sentPacketToLowerLayer:count 656
scalar SingleCell.ue[1].cellularNic.pdcp sentPacketToLowerLayer:sum(packetBytes) 45264
scalar SingleCell.ue[1].cellularNic.pdcp sentPacketToUpperLayer:count 666
scalar SingleCell.ue[1].cellularNic.pdcp sentPacketToUpperLayer:sum(packetBytes) 45288
scalar SingleCell.ue[1].cellularNic.pdcp receivedPacketFromLowerLayer:count 666
scalar SingleCell.ue[1].cellularNic.pdcp receivedPacketFromLowerLayer:sum(packetBytes) 45954
scalar SingleCell.ue[1].cellularNic.pdcp receivedPacketFromUpperLayer:count 656
scalar SingleCell.ue[1].cellularNic.pdcp receivedPacketFromUpperLayer:sum(packetBytes) 44608
scalar SingleCell.ue[1].cellularNic.rlc.tm rlcPacketLossUl:mean -nan
scalar SingleCell.ue[1].cellularNic.rlc.tm rlcPacketLossUl:sum 0
scalar SingleCell.ue[1].cellularNic.rlc.tm rlcPacketLossDl:mean -nan
scalar SingleCell.ue[1].cellularNic.rlc.tm rlcPacketLossDl:sum 0
scalar SingleCell.ue[1].cellularNic.rlc.tm sentPacketToLowerLayer:count 0
scalar SingleCell.ue[1].cellularNic.rlc.tm sentPacketToLowerLayer:sum(packetBytes) 0
scalar SingleCell.ue[1].cellularNic.rlc.tm sentPacketToUpperLayer:count 0
scalar SingleCell.ue[1].cellularNic.rlc.tm sentPacketToUpperLayer:sum(packetBytes) 0
scalar SingleCell.ue[1].cellularNic.rlc.tm receivedPacketFromLowerLayer:count 0
scalar SingleCell.ue[1].cellularNic.rlc.tm receivedPacketFromLowerLayer:sum(packetBytes) 0
scalar SingleCell.ue[1].cellularNic.rlc.tm receivedPacketFromUpperLayer:count 0
scalar SingleCell.ue[1].cellularNic.rlc.tm receivedPacketFromUpperLayer:sum(packetBytes) 0
scalar SingleCell.ue[1].cellularNic.rlc.um rlcPacketLossTotal:mean 0
scalar SingleCell.ue[1].cellularNic.rlc.um rlcCellThroughputUl:mean -nan
scalar SingleCell.ue[1].cellularNic.rlc.um rlcCellThroughputDl:mean -nan
scalar SingleCell.ue[1].cellularNic.rlc.um rlcPduThroughputUl:mean 0
scalar SingleCell.ue[1].cellularNic.rlc.um rlcPduThroughputDl:mean 0
scalar SingleCell.ue[1].cellularNic.rlc.um rlcPduDelayUl:mean 0.0040000000000000027
scalar SingleCell.ue[1].cellularNic.rlc.um rlcPduDelayDl:mean 0.0040000000000000027
scalar SingleCell.ue[1].cellularNic.rlc.um rlcThroughputUl:mean 2370.8300563262405
scalar SingleCell.ue[1].cellularNic.rlc.um rlcThroughputDl:mean 2571.6617696656303
scalar SingleCell.ue[1].cellularNic.rlc.um rlcDelayUl:mean 0.008376380298603648
scalar SingleCell.ue[1].cellularNic.rlc.um rlcDelayDl:mean 0.0045439981152267288
scalar SingleCell.ue[1].cellularNic.rlc.um rlcPduPacketLossUl:mean 0
scalar SingleCell.ue[1].cellularNic.rlc.um rlcPduPacketLossDl:mean 0
scalar SingleCell.ue[1].cellularNic.rlc.um rlcPacketLossUl:mean 0
scalar SingleCell.ue[1].cellularNic.rlc.um rlcPacketLossUl:sum 0
scalar SingleCell.ue[1].cellularNic.rlc.um rlcPacketLossDl:mean 0
scalar SingleCell.ue[1].cellularNic.rlc.um rlcPacketLossDl:sum 0
scalar SingleCell.ue[1].cellularNic.rlc.um rlcCellPacketLossUl:mean -nan
scalar SingleCell.ue[1].cellularNic.rlc.um rlcCellPacketLossDl:mean -nan
scalar SingleCell.ue[1].cellularNic.rlc.um sentPacketToLowerLayer:count 656
scalar SingleCell.ue[1].cellularNic.rlc.um sentPacketToLowerLayer:sum(packetBytes) 46576
scalar SingleCell.ue[1].cellularNic.rlc.um sentPacketToUpperLayer:count 666
scalar SingleCell.ue[1].cellularNic.rlc.um sentPacketToUpperLayer:sum(packetBytes) 45954
scalar SingleCell.ue[1].cellularNic.rlc.um receivedPacketFromLowerLayer:count 666
scalar SingleCell.ue[1].cellularNic.rlc.um receivedPacketFromLowerLayer:sum(packetBytes) 47286
scalar SingleCell.ue[1].cellularNic.rlc.um receivedPacketFromUpperLayer:count 656
scalar SingleCell.ue[1].cellularNic.rlc.um receivedPacketFromUpperLayer:sum(packetBytes) 45264
scalar SingleCell.ue[1].cellularNic.rlc.am rlcPacketLossTotal:mean -nan
scalar SingleCell.ue[1].cellularNic.rlc.am rlcCellThroughputUl:mean -nan
scalar SingleCell.ue[1].cellularNic.rlc.am rlcCellThroughputDl:mean -nan
scalar SingleCell.ue[1].cellularNic.rlc.am rlcPduThroughputUl:mean -nan
scalar SingleCell.ue[1].cellularNic.rlc.am rlcPduThroughputDl:mean -nan
scalar SingleCell.ue[1].cellularNic.rlc.am rlcPduDelayUl:mean -nan
scalar SingleCell.ue[1].cellularNic.rlc.am rlcPduDelayDl:mean -nan
scalar SingleCell.ue[1].cellularNic.rlc.am rlcThroughputUl:mean -nan
scalar SingleCell.ue[1].cellularNic.rlc.am rlcThroughputDl:mean -nan
scalar SingleCell.ue[1].cellularNic.rlc.am rlcDelayUl:mean -nan
scalar SingleCell.ue[1].cellularNic.rlc.am rlcDelayDl:mean -nan
scalar SingleCell.ue[1].cellularNic.rlc.am rlcPduPacketLossUl:mean -nan
scalar SingleCell.ue[1].cellularNic.rlc.am rlcPduPacketLossDl:mean -nan
scalar SingleCell.ue[1].cellularNic.rlc.am rlcPacketLossUl:mean -nan
scalar SingleCell.ue[1].cellularNic.rlc.am rlcPacketLossDl:mean -nan
scalar SingleCell.ue[1].cellularNic.rlc.am rlcCellPacketLossUl:mean -nan
scalar SingleCell.ue[1].cellularNic.rlc.am rlcCellPacketLossDl:mean -nan
scalar SingleCell.ue[1].cellularNic.mac harqTxAttemptsUl:mean 1
scalar SingleCell.ue[1].cellularNic.mac harqTxAttemptsDl:mean 1
scalar SingleCell.ue[1].cellularNic.mac harqErrorRate_4th_Ul:mean -nan
scalar SingleCell.ue[1].cellularNic.mac harqErrorRate_4th_Dl:mean -nan
scalar SingleCell.ue[1].cellularNic.mac harqErrorRate_3rd_Ul:mean -nan
scalar SingleCell.ue[1].cellularNic.mac harqErrorRate_3rd_Dl:mean -nan
scalar SingleCell.ue[1].cellularNic.mac harqErrorRate_2nd_Ul:mean -nan
scalar SingleCell.ue[1].cellularNic.mac harqErrorRate_2nd_Dl:mean -nan
scalar SingleCell.ue[1].cellularNic.mac harqErrorRate_1st_Ul:mean 0
scalar SingleCell.ue[1].cellularNic.mac harqErrorRate_1st_Dl:mean 0
scalar SingleCell.ue[1].cellularNic.mac harqErrorRateUl:mean 0
scalar SingleCell.ue[1].cellularNic.mac harqErrorRateDl:mean 0
scalar SingleCell.ue[1].cellularNic.mac macCellPacketLossUl:mean -nan
scalar SingleCell.ue[1].cellularNic.mac macCellPacketLossDl:mean -nan
scalar SingleCell.ue[1].cellularNic.mac macPacketLossUl:mean 0
scalar SingleCell.ue[1].cellularNic.mac macPacketLossDl:mean 0
scalar SingleCell.ue[1].cellularNic.mac macThroughputUl:mean 2508.2694798813859
scalar SingleCell.ue[1].cellularNic.mac macThroughputDl:mean 2720.7436113853769
scalar SingleCell.ue[1].cellularNic.mac macDelayUl:mean 0.0040000000000000027
scalar SingleCell.ue[1].cellularNic.mac macDelayDl:mean 0.0040000000000000027
scalar SingleCell.ue[1].cellularNic.mac macCellThroughputUl:mean -nan
scalar SingleCell.ue[1].cellularNic.mac macCellThroughputDl:mean -nan
scalar SingleCell.ue[1].cellularNic.mac sentPacketToLowerLayer:count 1978
scalar SingleCell.ue[1].cellularNic.mac sentPacketToLowerLayer:sum(packetBytes) 49210
scalar SingleCell.ue[1].cellularNic.mac sentPacketToUpperLayer:count 1322
scalar SingleCell.ue[1].cellularNic.mac sentPacketToUpperLayer:sum(packetBytes) 47942
scalar SingleCell.ue[1].cellularNic.mac receivedPacketFromLowerLayer:count 2634
scalar SingleCell.ue[1].cellularNic.mac receivedPacketFromLowerLayer:sum(packetBytes) 50586
scalar SingleCell.ue[1].cellularNic.mac receivedPacketFromUpperLayer:count 1312
scalar SingleCell.ue[1].cellularNic.mac receivedPacketFromUpperLayer:sum(packetBytes) 93152
scalar SingleCell.ue[1].cellularNic.mac macBufferOverFlowD2D:mean -nan
scalar SingleCell.ue[1].cellularNic.mac macBufferOverFlowUl:mean -nan
scalar SingleCell.ue[1].cellularNic.mac macBufferOverFlowDl:mean -nan
scalar SingleCell.ue[1].cellularNic.phy distance:mean -nan
scalar SingleCell.ue[1].cellularNic.phy averageCqiUl:mean 15
scalar SingleCell.ue[1].cellularNic.phy averageCqiUl:count 656
scalar SingleCell.ue[1].cellularNic.phy averageCqiDl:mean 15
scalar SingleCell.ue[1].cellularNic.phy averageCqiDl:count 666
scalar SingleCell.ue[1].cellularNic.channelModel[0] measuredSinrUl:mean 35.969859877234249
scalar SingleCell.ue[1].cellularNic.channelModel[0] measuredSinrDl:mean 50.022600296477897
scalar SingleCell.ue[1].cellularNic.channelModel[0] rcvdSinrD2D:mean -nan
scalar SingleCell.ue[1].cellularNic.channelModel[0] rcvdSinrUl:mean 33.190759886928092
scalar SingleCell.ue[1].cellularNic.channelModel[0] rcvdSinrDl:mean 46.189888489028704
scalar SingleCell.ue[1].cellularNic packetDropInterfaceDown:count 0
scalar SingleCell.ue[1].cellularNic packetDropInterfaceDown:sum(packetBytes) 0
scalar SingleCell.ue[1].cellularNic packetDropNoCarrier:count 0
scalar SingleCell.ue[1].cellularNic packetDropNoCarrier:sum(packetBytes) 0
scalar SingleCell.ue[1].encap pauseSent:count 0
scalar SingleCell.ue[1].encap pauseSent:sum 0
scalar SingleCell.ue[1].encap decapPk:count 0
scalar SingleCell.ue[1].encap decapPk:sum(packetBytes) 0
scalar SingleCell.ue[1].encap encapPk:count 0
scalar SingleCell.ue[1].encap encapPk:sum(packetBytes) 0
scalar SingleCell.ue[1].ipv4.ip packetDropAddressResolutionFailed:count 0
scalar SingleCell.ue[1].ipv4.ip packetDropAddressResolutionFailed:sum(packetBytes) 0
scalar SingleCell.ue[1].ipv4.ip packetDropHopLimitReached:count 0
scalar SingleCell.ue[1].ipv4.ip packetDropHopLimitReached:sum(packetBytes) 0
scalar SingleCell.ue[1].ipv4.ip packetDropForwardingDisabled:count 0
scalar SingleCell.ue[1].ipv4.ip packetDropForwardingDisabled:sum(packetBytes) 0
scalar SingleCell.ue[1].ipv4.ip packetDropNoInterfaceFound:count 0
scalar SingleCell.ue[1].ipv4.ip packetDropNoInterfaceFound:sum(packetBytes) 0
scalar SingleCell.ue[1].ipv4.ip packetDropNoRouteFound:count 0
scalar SingleCell.ue[1].ipv4.ip packetDropNoRouteFound:sum(packetBytes) 0
scalar SingleCell.ue[1].ipv4.ip packetDropUndefined:count 0
scalar SingleCell.ue[1].ipv4.ip packetDropUndefined:sum(packetBytes) 0
scalar SingleCell.ue[1].ipv4.arp arpResolutionFailed:count 0
scalar SingleCell.ue[1].ipv4.arp arpResolutionCompleted:count 0
scalar SingleCell.ue[1].ipv4.arp arpResolutionInitiated:count 0
scalar SingleCell.ue[1].ipv4.arp arpReplySent:count 0
scalar SingleCell.ue[1].ipv4.arp arpReplySent:sum(packetBytes) 0
scalar SingleCell.ue[1].ipv4.arp arpRequestSent:count 0
scalar SingleCell.ue[1].ipv4.arp arpRequestSent:sum(packetBytes) 0
scalar SingleCell.ue[1].udp packetReceived:count 666
scalar SingleCell.ue[1].udp packetReceived:sum(packetBytes) 31968
scalar SingleCell.ue[1].udp packetSent:count 656
scalar SingleCell.ue[1].udp packetSent:sum(packetBytes) 31488
scalar SingleCell.ue[1].udp passedUpPk:count 666
scalar SingleCell.ue[1].udp droppedPkWrongPort:count 0
scalar SingleCell.ue[1].udp droppedPkBadChecksum:count 0
scalar SingleCell.ue[1].app[0] voIPReceivedThroughput:mean 1490.8184171974649
scalar SingleCell.ue[1].app[0] voIPPlayoutLoss:mean 0
scalar SingleCell.ue[1].app[0] voIPJitter:mean -nan
scalar SingleCell.ue[1].app[0] voIPTaildropLoss:mean 0
scalar SingleCell.ue[1].app[0] voIPMos:mean 4.4092858240000004
scalar SingleCell.ue[1].app[0] voIPPlayoutDelay:mean 0
scalar SingleCell.ue[1].app[0] voIPFrameDelay:mean 0.004544356915226676
scalar SingleCell.ue[1].app[0] voIPFrameLoss:mean 0
scalar SingleCell.ue[1].app[1] voIPGeneratedThroughput:mean 1379.6389346679127
scalar SingleCell.ue[2].lo[0].lo rcvdPkFromHl:count 0
scalar SingleCell.ue[2].lo[0].lo rcvdPkFromHl:sum(packetBytes) 0
scalar SingleCell.ue[2].lo[0].lo passedUpPk:count 0
scalar SingleCell.ue[2].lo[0].lo passedUpPk:sum(packetBytes) 0
scalar SingleCell.ue[2].lo[0] packetDropInterfaceDown:count 0
scalar SingleCell.ue[2].lo[0] packetDropInterfaceDown:sum(packetBytes) 0
scalar SingleCell.ue[2].lo[0] packetDropNoCarrier:count 0
scalar SingleCell.ue[2].lo[0] packetDropNoCarrier:sum(packetBytes) 0
scalar SingleCell.ue[2].cellularNic.pdcp sentPacketToLowerLayer:count 818
scalar SingleCell.ue[2].cellularNic.pdcp sentPacketToLowerLayer:sum(packetBytes) 56442
scalar SingleCell.ue[2].cellularNic.pdcp sentPacketToUpperLayer:count 724
scalar SingleCell.ue[2].cellularNic.pdcp sentPacketToUpperLayer:sum(packetBytes) 49232
scalar SingleCell.ue[2].cellularNic.pdcp receivedPacketFromLowerLayer:count 724
scalar SingleCell.ue[2].cellularNic.pdcp receivedPacketFromLowerLayer:sum(packetBytes) 49956
scalar SingleCell.ue[2].cellularNic.pdcp receivedPacketFromUpperLayer:count 818
scalar SingleCell.ue[2].cellularNic.pdcp receivedPacketFromUpperLayer:sum(packetBytes) 55624
scalar SingleCell.ue[2].cellularNic.rlc.tm rlcPacketLossUl:mean -nan
scalar SingleCell.ue[2].cellularNic.rlc.tm rlcPacketLossUl:sum 0
scalar SingleCell.ue[2].cellularNic.rlc.tm rlcPacketLossDl:mean -nan
scalar SingleCell.ue[2].cellularNic.rlc.tm rlcPacketLossDl:sum 0
scalar SingleCell.ue[2].cellularNic.rlc.tm sentPacketToLowerLayer:count 0
scalar SingleCell.ue[2].cellularNic.rlc.tm sentPacketToLowerLayer:sum(packetBytes) 0
scalar SingleCell.ue[2].cellularNic.rlc.tm sentPacketToUpperLayer:count 0
scalar SingleCell.ue[2].cellularNic.rlc.tm sentPacketToUpperLayer:sum(packetBytes) 0
scalar SingleCell.ue[2].cellularNic.rlc.tm receivedPacketFromLowerLayer:count 0
scalar SingleCell.ue[2].cellularNic.rlc.tm receivedPacketFromLowerLayer:sum(packetBytes) 0
scalar SingleCell.ue[2].cellularNic.rlc.tm receivedPacketFromUpperLayer:count 0
scalar SingleCell.ue[2].cellularNic.rlc.tm receivedPacketFromUpperLayer:sum(packetBytes) 0
scalar SingleCell.ue[2].cellularNic.rlc.um rlcPacketLossTotal:mean 0
scalar SingleCell.ue[2].cellularNic.rlc.um rlcCellThroughputUl:mean -nan
scalar SingleCell.ue[2].cellularNic.rlc.um rlcCellThroughputDl:mean -nan
scalar SingleCell.ue[2].cellularNic.rlc.um rlcPduThroughputUl:mean 0
scalar SingleCell.ue[2].cellularNic.rlc.um rlcPduThroughputDl:mean 0
scalar SingleCell.ue[2].cellularNic.rlc.um rlcPduDelayUl:mean 0.0040000000000000027
scalar SingleCell.ue[2].cellularNic.rlc.um rlcPduDelayDl:mean 0.0040000000000000027
scalar SingleCell.ue[2].cellularNic.rlc.um rlcThroughputUl:mean 2752.9917023914577
scalar SingleCell.ue[2].cellularNic.rlc.um rlcThroughputDl:mean 3099.1574502546187
scalar SingleCell.ue[2].cellularNic.rlc.um rlcDelayUl:mean 0.0085486727228190375
scalar SingleCell.ue[2].cellularNic.rlc.um rlcDelayDl:mean 0.0045513879473660273
scalar SingleCell.ue[2].cellularNic.rlc.um rlcPduPacketLossUl:mean 0
scalar SingleCell.ue[2].cellularNic.rlc.um rlcPduPacketLossDl:mean 0
scalar SingleCell.ue[2].cellularNic.rlc.um rlcPacketLossUl:mean 0
scalar SingleCell.ue[2].cellularNic.rlc.um rlcPacketLossUl:sum 0
scalar SingleCell.ue[2].cellularNic.rlc.um rlcPacketLossDl:mean 0
scalar SingleCell.ue[2].cellularNic.rlc.um rlcPacketLossDl:sum 0
scalar SingleCell.ue[2].cellularNic.rlc.um rlcCellPacketLossUl:mean -nan
scalar SingleCell.ue[2].cellularNic.rlc.um rlcCellPacketLossDl:mean -nan
scalar SingleCell.ue[2].cellularNic.rlc.um sentPacketToLowerLayer:count 818
scalar SingleCell.ue[2].cellularNic.rlc.um sentPacketToLowerLayer:sum(packetBytes) 58078
scalar SingleCell.ue[2].cellularNic.rlc.um sentPacketToUpperLayer:count 724
scalar SingleCell.ue[2].cellularNic.rlc.um sentPacketToUpperLayer:sum(packetBytes) 49956
scalar SingleCell.ue[2].cellularNic.rlc.um receivedPacketFromLowerLayer:count 724
scalar SingleCell.ue[2].cellularNic.rlc.um receivedPacketFromLowerLayer:sum(packetBytes) 51404
scalar SingleCell.ue[2].cellularNic.rlc.um receivedPacketFromUpperLayer:count 818
scalar SingleCell.ue[2].cellularNic.rlc.um receivedPacketFromUpperLayer:sum(packetBytes) 56442
scalar SingleCell.ue[2].cellularNic.rlc.am rlcPacketLossTotal:mean -nan
scalar SingleCell.ue[2].cellularNic.rlc.am rlcCellThroughputUl:mean -nan
scalar SingleCell.ue[2].cellularNic.rlc.am rlcCellThroughputDl:mean -nan
scalar SingleCell.ue[2].cellularNic.rlc.am rlcPduThroughputUl:mean -nan
scalar SingleCell.ue[2].cellularNic.rlc.am rlcPduThroughputDl:mean -nan
scalar SingleCell.ue[2].cellularNic.rlc.am rlcPduDelayUl:mean -nan
scalar SingleCell.ue[2].cellularNic.rlc.am rlcPduDelayDl:mean -nan
scalar SingleCell.ue[2].cellularNic.rlc.am rlcThroughputUl:mean -nan
scalar SingleCell.ue[2].cellularNic.rlc.am rlcThroughputDl:mean -nan
scalar SingleCell.ue[2].cellularNic.rlc.am rlcDelayUl:mean -nan
scalar SingleCell.ue[2].cellularNic.rlc.am rlcDelayDl:mean -nan
scalar SingleCell.ue[2].cellularNic.rlc.am rlcPduPacketLossUl:mean -nan
scalar SingleCell.ue[2].cellularNic.rlc.am rlcPduPacketLossDl:mean -nan
scalar SingleCell.ue[2].cellularNic.rlc.am rlcPacketLossUl:mean -nan
scalar SingleCell.ue[2].cellularNic.rlc.am rlcPacketLossDl:mean -nan
scalar SingleCell.ue[2].cellularNic.rlc.am rlcCellPacketLossUl:mean -nan
scalar SingleCell.ue[2].cellularNic.rlc.am rlcCellPacketLossDl:mean -nan
scalar SingleCell.ue[2].cellularNic.mac harqTxAttemptsUl:mean 1
scalar SingleCell.ue[2].cellularNic.mac harqTxAttemptsDl:mean 1
scalar SingleCell.ue[2].cellularNic.mac harqErrorRate_4th_Ul:mean -nan
scalar SingleCell.ue[2].cellularNic.mac harqErrorRate_4th_Dl:mean -nan
scalar SingleCell.ue[2].cellularNic.mac harqErrorRate_3rd_Ul:mean -nan
scalar SingleCell.ue[2].cellularNic.mac harqErrorRate_3rd_Dl:mean -nan
scalar SingleCell.ue[2].cellularNic.mac harqErrorRate_2nd_Ul:mean -nan
scalar SingleCell.ue[2].cellularNic.mac harqErrorRate_2nd_Dl:mean -nan
scalar SingleCell.ue[2].cellularNic.mac harqErrorRate_1st_Ul:mean 0
scalar SingleCell.ue[2].cellularNic.mac harqErrorRate_1st_Dl:mean 0
scalar SingleCell.ue[2].cellularNic.mac harqErrorRateUl:mean 0
scalar SingleCell.ue[2].cellularNic.mac harqErrorRateDl:mean 0
scalar SingleCell.ue[2].cellularNic.mac macCellPacketLossUl:mean -nan
scalar SingleCell.ue[2].cellularNic.mac macCellPacketLossDl:mean -nan
scalar SingleCell.ue[2].cellularNic.mac macPacketLossUl:mean 0
scalar SingleCell.ue[2].cellularNic.mac macPacketLossDl:mean 0
scalar SingleCell.ue[2].cellularNic.mac macThroughputUl:mean 2912.5854242692212
scalar SingleCell.ue[2].cellularNic.mac macThroughputDl:mean 3278.8187517186584
scalar SingleCell.ue[2].cellularNic.mac macDelayUl:mean 0.0040000000000000027
scalar SingleCell.ue[2].cellularNic.mac macDelayDl:mean 0.0040000000000000027
scalar SingleCell.ue[2].cellularNic.mac macCellThroughputUl:mean -nan
scalar SingleCell.ue[2].cellularNic.mac macCellThroughputDl:mean -nan
scalar SingleCell.ue[2].cellularNic.mac sentPacketToLowerLayer:count 2360
scalar SingleCell.ue[2].cellularNic.mac sentPacketToLowerLayer:sum(packetBytes) 61256
scalar SingleCell.ue[2].cellularNic.mac sentPacketToUpperLayer:count 1542
scalar SingleCell.ue[2].cellularNic.mac sentPacketToUpperLayer:sum(packetBytes) 52222
scalar SingleCell.ue[2].cellularNic.mac receivedPacketFromLowerLayer:count 3179
scalar SingleCell.ue[2].cellularNic.mac receivedPacketFromLowerLayer:sum(packetBytes) 55379
scalar SingleCell.ue[2].cellularNic.mac receivedPacketFromUpperLayer:count 1636
scalar SingleCell.ue[2].cellularNic.mac receivedPacketFromUpperLayer:sum(packetBytes) 116156
scalar SingleCell.ue[2].cellularNic.mac macBufferOverFlowD2D:mean -nan
scalar SingleCell.ue[2].cellularNic.mac macBufferOverFlowUl:mean -nan
scalar SingleCell.ue[2].cellularNic.mac macBufferOverFlowDl:mean -nan
scalar SingleCell.ue[2].cellularNic.phy distance:mean -nan
scalar SingleCell.ue[2].cellularNic.phy averageCqiUl:mean 14
scalar SingleCell.ue[2].cellularNic.phy averageCqiUl:count 818
scalar SingleCell.ue[2].cellularNic.phy averageCqiDl:mean 15
scalar SingleCell.ue[2].cellularNic.phy averageCqiDl:count 725
scalar SingleCell.ue[2].cellularNic.channelModel[0] measuredSinrUl:mean 34.31459473309225
scalar SingleCell.ue[2].cellularNic.channelModel[0] measuredSinrDl:mean 60.89229748596911
scalar SingleCell.ue[2].cellularNic.channelModel[0] rcvdSinrD2D:mean -nan
scalar SingleCell.ue[2].cellularNic.channelModel[0] rcvdSinrUl:mean 37.903262040621243
scalar SingleCell.ue[2].cellularNic.channelModel[0] rcvdSinrDl:mean 61.358028445022775
scalar SingleCell.ue[2].cellularNic packetDropInterfaceDown:count 0
scalar SingleCell.ue[2].cellularNic packetDropInterfaceDown:sum(packetBytes) 0
scalar SingleCell.ue[2].cellularNic packetDropNoCarrier:count 0
scalar SingleCell.ue[2].cellularNic packetDropNoCarrier:sum(packetBytes) 0
scalar SingleCell.ue[2].encap pauseSent:count 0
scalar SingleCell.ue[2].encap pauseSent:sum 0
scalar SingleCell.ue[2].encap decapPk:count 0
scalar SingleCell.ue[2].encap decapPk:sum(packetBytes) 0
scalar SingleCell.ue[2].encap encapPk:count 0
scalar SingleCell.ue[2].encap encapPk:sum(packetBytes) 0
scalar SingleCell.ue[2].ipv4.ip packetDropAddressResolutionFailed:count 0
scalar SingleCell.ue[2].ipv4.ip packetDropAddressResolutionFailed:sum(packetBytes) 0
scalar SingleCell.ue[2].ipv4.ip packetDropHopLimitReached:count 0
scalar SingleCell.ue[2].ipv4.ip packetDropHopLimitReached:sum(packetBytes) 0
scalar SingleCell.ue[2].ipv4.ip packetDropForwardingDisabled:count 0
scalar SingleCell.ue[2].ipv4.ip packetDropForwardingDisabled:sum(packetBytes) 0
scalar SingleCell.ue[2].ipv4.ip packetDropNoInterfaceFound:count 0
scalar SingleCell.ue[2].ipv4.ip packetDropNoInterfaceFound:sum(packetBytes) 0
scalar SingleCell.ue[2].ipv4.ip packetDropNoRouteFound:count 0
scalar SingleCell.ue[2].ipv4.ip packetDropNoRouteFound:sum(packetBytes) 0
scalar SingleCell.ue[2].ipv4.ip packetDropUndefined:count 0
[...]
scalar SingleCell.ue[24].cellularNic.phy servingCell:vector:min inf
scalar SingleCell.ue[24].cellularNic.phy servingCell:vector:max -inf
scalar SingleCell.ue[24].cellularNic.phy servingCell:vector:starttime nan
scalar SingleCell.ue[24].cellularNic.phy servingCell:vector:endtime nan
scalar SingleCell.ue[24].cellularNic.phy averageCqiDl:vector:count 0
scalar SingleCell.ue[24].cellularNic.phy averageCqiDl:vector:sum 0
scalar SingleCell.ue[24].cellularNic.phy averageCqiDl:vector:sumweights 0
scalar SingleCell.ue[24].cellularNic.phy averageCqiDl:vector:mean -nan
scalar SingleCell.ue[24].cellularNic.phy averageCqiDl:vector:stddev nan
scalar SingleCell.ue[24].cellularNic.phy averageCqiDl:vector:min inf
scalar SingleCell.ue[24].cellularNic.phy averageCqiDl:vector:max -inf
scalar SingleCell.ue[24].cellularNic.phy averageCqiDl:vector:starttime nan
scalar SingleCell.ue[24].cellularNic.phy averageCqiDl:vector:endtime nan
scalar SingleCell.ue[24].cellularNic.phy averageCqiUl:vector:count 0
scalar SingleCell.ue[24].cellularNic.phy averageCqiUl:vector:sum 0
scalar SingleCell.ue[24].cellularNic.phy averageCqiUl:vector:sumweights 0
scalar SingleCell.ue[24].cellularNic.phy averageCqiUl:vector:mean -nan
scalar SingleCell.ue[24].cellularNic.phy averageCqiUl:vector:stddev nan
scalar SingleCell.ue[24].cellularNic.phy averageCqiUl:vector:min inf
scalar SingleCell.ue[24].cellularNic.phy averageCqiUl:vector:max -inf
scalar SingleCell.ue[24].cellularNic.phy averageCqiUl:vector:starttime nan
scalar SingleCell.ue[24].cellularNic.phy averageCqiUl:vector:endtime nan
scalar SingleCell.ue[24].cellularNic.channelModel[0] rcvdSinrDl:vector:count 0
scalar SingleCell.ue[24].cellularNic.channelModel[0] rcvdSinrDl:vector:sum 0
scalar SingleCell.ue[24].cellularNic.channelModel[0] rcvdSinrDl:vector:sumweights 0
scalar SingleCell.ue[24].cellularNic.channelModel[0] rcvdSinrDl:vector:mean -nan
scalar SingleCell.ue[24].cellularNic.channelModel[0] rcvdSinrDl:vector:stddev nan
scalar SingleCell.ue[24].cellularNic.channelModel[0] rcvdSinrDl:vector:min inf
scalar SingleCell.ue[24].cellularNic.channelModel[0] rcvdSinrDl:vector:max -inf
scalar SingleCell.ue[24].cellularNic.channelModel[0] rcvdSinrDl:vector:starttime nan
scalar SingleCell.ue[24].cellularNic.channelModel[0] rcvdSinrDl:vector:endtime nan
scalar SingleCell.ue[24].cellularNic.channelModel[0] rcvdSinrUl:vector:count 0
scalar SingleCell.ue[24].cellularNic.channelModel[0] rcvdSinrUl:vector:sum 0
scalar SingleCell.ue[24].cellularNic.channelModel[0] rcvdSinrUl:vector:sumweights 0
scalar SingleCell.ue[24].cellularNic.channelModel[0] rcvdSinrUl:vector:mean -nan
scalar SingleCell.ue[24].cellularNic.channelModel[0] rcvdSinrUl:vector:stddev nan
scalar SingleCell.ue[24].cellularNic.channelModel[0] rcvdSinrUl:vector:min inf
scalar SingleCell.ue[24].cellularNic.channelModel[0] rcvdSinrUl:vector:max -inf
scalar SingleCell.ue[24].cellularNic.channelModel[0] rcvdSinrUl:vector:starttime nan
scalar SingleCell.ue[24].cellularNic.channelModel[0] rcvdSinrUl:vector:endtime nan
scalar SingleCell.ue[24].cellularNic.channelModel[0] rcvdSinrD2D:vector:count 0
scalar SingleCell.ue[24].cellularNic.channelModel[0] rcvdSinrD2D:vector:sum 0
scalar SingleCell.ue[24].cellularNic.channelModel[0] rcvdSinrD2D:vector:sumweights 0
scalar SingleCell.ue[24].cellularNic.channelModel[0] rcvdSinrD2D:vector:mean -nan
scalar SingleCell.ue[24].cellularNic.channelModel[0] rcvdSinrD2D:vector:stddev nan
scalar SingleCell.ue[24].cellularNic.channelModel[0] rcvdSinrD2D:vector:min inf
scalar SingleCell.ue[24].cellularNic.channelModel[0] rcvdSinrD2D:vector:max -inf
scalar SingleCell.ue[24].cellularNic.channelModel[0] rcvdSinrD2D:vector:starttime nan
scalar SingleCell.ue[24].cellularNic.channelModel[0] rcvdSinrD2D:vector:endtime nan
scalar SingleCell.ue[24].cellularNic.channelModel[0] measuredSinrDl:vector:count 0
scalar SingleCell.ue[24].cellularNic.channelModel[0] measuredSinrDl:vector:sum 0
scalar SingleCell.ue[24].cellularNic.channelModel[0] measuredSinrDl:vector:sumweights 0
scalar SingleCell.ue[24].cellularNic.channelModel[0] measuredSinrDl:vector:mean -nan
scalar SingleCell.ue[24].cellularNic.channelModel[0] measuredSinrDl:vector:stddev nan
scalar SingleCell.ue[24].cellularNic.channelModel[0] measuredSinrDl:vector:min inf
scalar SingleCell.ue[24].cellularNic.channelModel[0] measuredSinrDl:vector:max -inf
scalar SingleCell.ue[24].cellularNic.channelModel[0] measuredSinrDl:vector:starttime nan
scalar SingleCell.ue[24].cellularNic.channelModel[0] measuredSinrDl:vector:endtime nan
scalar SingleCell.ue[24].cellularNic.channelModel[0] measuredSinrUl:vector:count 0
scalar SingleCell.ue[24].cellularNic.channelModel[0] measuredSinrUl:vector:sum 0
scalar SingleCell.ue[24].cellularNic.channelModel[0] measuredSinrUl:vector:sumweights 0
scalar SingleCell.ue[24].cellularNic.channelModel[0] measuredSinrUl:vector:mean -nan
scalar SingleCell.ue[24].cellularNic.channelModel[0] measuredSinrUl:vector:stddev nan
scalar SingleCell.ue[24].cellularNic.channelModel[0] measuredSinrUl:vector:min inf
scalar SingleCell.ue[24].cellularNic.channelModel[0] measuredSinrUl:vector:max -inf
scalar SingleCell.ue[24].cellularNic.channelModel[0] measuredSinrUl:vector:starttime nan
scalar SingleCell.ue[24].cellularNic.channelModel[0] measuredSinrUl:vector:endtime nan
scalar SingleCell.ue[24].cellularNic packetDropInterfaceDown:vector(packetBytes):count 0
scalar SingleCell.ue[24].cellularNic packetDropInterfaceDown:vector(packetBytes):sum 0
scalar SingleCell.ue[24].cellularNic packetDropInterfaceDown:vector(packetBytes):sumweights 0
scalar SingleCell.ue[24].cellularNic packetDropInterfaceDown:vector(packetBytes):mean -nan
scalar SingleCell.ue[24].cellularNic packetDropInterfaceDown:vector(packetBytes):stddev nan
scalar SingleCell.ue[24].cellularNic packetDropInterfaceDown:vector(packetBytes):min inf
scalar SingleCell.ue[24].cellularNic packetDropInterfaceDown:vector(packetBytes):max -inf
scalar SingleCell.ue[24].cellularNic packetDropInterfaceDown:vector(packetBytes):starttime nan
scalar SingleCell.ue[24].cellularNic packetDropInterfaceDown:vector(packetBytes):endtime nan
scalar SingleCell.ue[24].cellularNic packetDropNoCarrier:vector(packetBytes):count 0
scalar SingleCell.ue[24].cellularNic packetDropNoCarrier:vector(packetBytes):sum 0
scalar SingleCell.ue[24].cellularNic packetDropNoCarrier:vector(packetBytes):sumweights 0
scalar SingleCell.ue[24].cellularNic packetDropNoCarrier:vector(packetBytes):mean -nan
scalar SingleCell.ue[24].cellularNic packetDropNoCarrier:vector(packetBytes):stddev nan
scalar SingleCell.ue[24].cellularNic packetDropNoCarrier:vector(packetBytes):min inf
scalar SingleCell.ue[24].cellularNic packetDropNoCarrier:vector(packetBytes):max -inf
scalar SingleCell.ue[24].cellularNic packetDropNoCarrier:vector(packetBytes):starttime nan
scalar SingleCell.ue[24].cellularNic packetDropNoCarrier:vector(packetBytes):endtime nan
scalar SingleCell.ue[24].encap encapPk:vector(packetBytes):count 0
scalar SingleCell.ue[24].encap encapPk:vector(packetBytes):sum 0
scalar SingleCell.ue[24].encap encapPk:vector(packetBytes):sumweights 0
scalar SingleCell.ue[24].encap encapPk:vector(packetBytes):mean -nan
scalar SingleCell.ue[24].encap encapPk:vector(packetBytes):stddev nan
scalar SingleCell.ue[24].encap encapPk:vector(packetBytes):min inf
scalar SingleCell.ue[24].encap encapPk:vector(packetBytes):max -inf
scalar SingleCell.ue[24].encap encapPk:vector(packetBytes):starttime nan
scalar SingleCell.ue[24].encap encapPk:vector(packetBytes):endtime nan
scalar SingleCell.ue[24].encap decapPk:vector(packetBytes):count 0
scalar SingleCell.ue[24].encap decapPk:vector(packetBytes):sum 0
scalar SingleCell.ue[24].encap decapPk:vector(packetBytes):sumweights 0
scalar SingleCell.ue[24].encap decapPk:vector(packetBytes):mean -nan
scalar SingleCell.ue[24].encap decapPk:vector(packetBytes):stddev nan
scalar SingleCell.ue[24].encap decapPk:vector(packetBytes):min inf
scalar SingleCell.ue[24].encap decapPk:vector(packetBytes):max -inf
scalar SingleCell.ue[24].encap decapPk:vector(packetBytes):starttime nan
scalar SingleCell.ue[24].encap decapPk:vector(packetBytes):endtime nan
scalar SingleCell.ue[24].encap pauseSent:vector:count 0
scalar SingleCell.ue[24].encap pauseSent:vector:sum 0
scalar SingleCell.ue[24].encap pauseSent:vector:sumweights 0
scalar SingleCell.ue[24].encap pauseSent:vector:mean -nan
scalar SingleCell.ue[24].encap pauseSent:vector:stddev nan
scalar SingleCell.ue[24].encap pauseSent:vector:min inf
scalar SingleCell.ue[24].encap pauseSent:vector:max -inf
scalar SingleCell.ue[24].encap pauseSent:vector:starttime nan
scalar SingleCell.ue[24].encap pauseSent:vector:endtime nan
scalar SingleCell.ue[24].ipv4.ip packetDropAddressResolutionFailed:vector(packetBytes):count 0
scalar SingleCell.ue[24].ipv4.ip packetDropAddressResolutionFailed:vector(packetBytes):sum 0
scalar SingleCell.ue[24].ipv4.ip packetDropAddressResolutionFailed:vector(packetBytes):sumweights 0
scalar SingleCell.ue[24].ipv4.ip packetDropAddressResolutionFailed:vector(packetBytes):mean -nan
scalar SingleCell.ue[24].ipv4.ip packetDropAddressResolutionFailed:vector(packetBytes):stddev nan
scalar SingleCell.ue[24].ipv4.ip packetDropAddressResolutionFailed:vector(packetBytes):min inf
scalar SingleCell.ue[24].ipv4.ip packetDropAddressResolutionFailed:vector(packetBytes):max -inf
scalar SingleCell.ue[24].ipv4.ip packetDropAddressResolutionFailed:vector(packetBytes):starttime nan
scalar SingleCell.ue[24].ipv4.ip packetDropAddressResolutionFailed:vector(packetBytes):endtime nan
scalar SingleCell.ue[24].ipv4.ip packetDropHopLimitReached:vector(packetBytes):count 0
scalar SingleCell.ue[24].ipv4.ip packetDropHopLimitReached:vector(packetBytes):sum 0
scalar SingleCell.ue[24].ipv4.ip packetDropHopLimitReached:vector(packetBytes):sumweights 0
scalar SingleCell.ue[24].ipv4.ip packetDropHopLimitReached:vector(packetBytes):mean -nan
scalar SingleCell.ue[24].ipv4.ip packetDropHopLimitReached:vector(packetBytes):stddev nan
scalar SingleCell.ue[24].ipv4.ip packetDropHopLimitReached:vector(packetBytes):min inf
scalar SingleCell.ue[24].ipv4.ip packetDropHopLimitReached:vector(packetBytes):max -inf
scalar SingleCell.ue[24].ipv4.ip packetDropHopLimitReached:vector(packetBytes):starttime nan
scalar SingleCell.ue[24].ipv4.ip packetDropHopLimitReached:vector(packetBytes):endtime nan
scalar SingleCell.ue[24].ipv4.ip packetDropForwardingDisabled:vector(packetBytes):count 0
scalar SingleCell.ue[24].ipv4.ip packetDropForwardingDisabled:vector(packetBytes):sum 0
scalar SingleCell.ue[24].ipv4.ip packetDropForwardingDisabled:vector(packetBytes):sumweights 0
scalar SingleCell.ue[24].ipv4.ip packetDropForwardingDisabled:vector(packetBytes):mean -nan
scalar SingleCell.ue[24].ipv4.ip packetDropForwardingDisabled:vector(packetBytes):stddev nan
scalar SingleCell.ue[24].ipv4.ip packetDropForwardingDisabled:vector(packetBytes):min inf
scalar SingleCell.ue[24].ipv4.ip packetDropForwardingDisabled:vector(packetBytes):max -inf
scalar SingleCell.ue[24].ipv4.ip packetDropForwardingDisabled:vector(packetBytes):starttime nan
scalar SingleCell.ue[24].ipv4.ip packetDropForwardingDisabled:vector(packetBytes):endtime nan
scalar SingleCell.ue[24].ipv4.ip packetDropNoInterfaceFound:vector(packetBytes):count 0
scalar SingleCell.ue[24].ipv4.ip packetDropNoInterfaceFound:vector(packetBytes):sum 0
scalar SingleCell.ue[24].ipv4.ip packetDropNoInterfaceFound:vector(packetBytes):sumweights 0
scalar SingleCell.ue[24].ipv4.ip packetDropNoInterfaceFound:vector(packetBytes):mean -nan
scalar SingleCell.ue[24].ipv4.ip packetDropNoInterfaceFound:vector(packetBytes):stddev nan
scalar SingleCell.ue[24].ipv4.ip packetDropNoInterfaceFound:vector(packetBytes):min inf
scalar SingleCell.ue[24].ipv4.ip packetDropNoInterfaceFound:vector(packetBytes):max -inf
scalar SingleCell.ue[24].ipv4.ip packetDropNoInterfaceFound:vector(packetBytes):starttime nan
scalar SingleCell.ue[24].ipv4.ip packetDropNoInterfaceFound:vector(packetBytes):endtime nan
scalar SingleCell.ue[24].ipv4.ip packetDropNoRouteFound:vector(packetBytes):count 0
scalar SingleCell.ue[24].ipv4.ip packetDropNoRouteFound:vector(packetBytes):sum 0
scalar SingleCell.ue[24].ipv4.ip packetDropNoRouteFound:vector(packetBytes):sumweights 0
scalar SingleCell.ue[24].ipv4.ip packetDropNoRouteFound:vector(packetBytes):mean -nan
scalar SingleCell.ue[24].ipv4.ip packetDropNoRouteFound:vector(packetBytes):stddev nan
scalar SingleCell.ue[24].ipv4.ip packetDropNoRouteFound:vector(packetBytes):min inf
scalar SingleCell.ue[24].ipv4.ip packetDropNoRouteFound:vector(packetBytes):max -inf
scalar SingleCell.ue[24].ipv4.ip packetDropNoRouteFound:vector(packetBytes):starttime nan
scalar SingleCell.ue[24].ipv4.ip packetDropNoRouteFound:vector(packetBytes):endtime nan
scalar SingleCell.ue[24].ipv4.ip packetDropUndefined:vector(packetBytes):count 0
scalar SingleCell.ue[24].ipv4.ip packetDropUndefined:vector(packetBytes):sum 0
scalar SingleCell.ue[24].ipv4.ip packetDropUndefined:vector(packetBytes):sumweights 0
scalar SingleCell.ue[24].ipv4.ip packetDropUndefined:vector(packetBytes):mean -nan
scalar SingleCell.ue[24].ipv4.ip packetDropUndefined:vector(packetBytes):stddev nan
scalar SingleCell.ue[24].ipv4.ip packetDropUndefined:vector(packetBytes):min inf
scalar SingleCell.ue[24].ipv4.ip packetDropUndefined:vector(packetBytes):max -inf
scalar SingleCell.ue[24].ipv4.ip packetDropUndefined:vector(packetBytes):starttime nan
scalar SingleCell.ue[24].ipv4.ip packetDropUndefined:vector(packetBytes):endtime nan
scalar SingleCell.ue[24].ipv4.arp arpRequestSent:vector(packetBytes):count 0
scalar SingleCell.ue[24].ipv4.arp arpRequestSent:vector(packetBytes):sum 0
scalar SingleCell.ue[24].ipv4.arp arpRequestSent:vector(packetBytes):sumweights 0
scalar SingleCell.ue[24].ipv4.arp arpRequestSent:vector(packetBytes):mean -nan
scalar SingleCell.ue[24].ipv4.arp arpRequestSent:vector(packetBytes):stddev nan
scalar SingleCell.ue[24].ipv4.arp arpRequestSent:vector(packetBytes):min inf
scalar SingleCell.ue[24].ipv4.arp arpRequestSent:vector(packetBytes):max -inf
scalar SingleCell.ue[24].ipv4.arp arpRequestSent:vector(packetBytes):starttime nan
scalar SingleCell.ue[24].ipv4.arp arpRequestSent:vector(packetBytes):endtime nan
scalar SingleCell.ue[24].ipv4.arp arpReplySent:vector(packetBytes):count 0
scalar SingleCell.ue[24].ipv4.arp arpReplySent:vector(packetBytes):sum 0
scalar SingleCell.ue[24].ipv4.arp arpReplySent:vector(packetBytes):sumweights 0
scalar SingleCell.ue[24].ipv4.arp arpReplySent:vector(packetBytes):mean -nan
scalar SingleCell.ue[24].ipv4.arp arpReplySent:vector(packetBytes):stddev nan
scalar SingleCell.ue[24].ipv4.arp arpReplySent:vector(packetBytes):min inf
scalar SingleCell.ue[24].ipv4.arp arpReplySent:vector(packetBytes):max -inf
scalar SingleCell.ue[24].ipv4.arp arpReplySent:vector(packetBytes):starttime nan
scalar SingleCell.ue[24].ipv4.arp arpReplySent:vector(packetBytes):endtime nan
scalar SingleCell.ue[24].udp packetSent:vector(packetBytes):count 0
scalar SingleCell.ue[24].udp packetSent:vector(packetBytes):sum 0
scalar SingleCell.ue[24].udp packetSent:vector(packetBytes):sumweights 0
scalar SingleCell.ue[24].udp packetSent:vector(packetBytes):mean -nan
scalar SingleCell.ue[24].udp packetSent:vector(packetBytes):stddev nan
scalar SingleCell.ue[24].udp packetSent:vector(packetBytes):min inf
scalar SingleCell.ue[24].udp packetSent:vector(packetBytes):max -inf
scalar SingleCell.ue[24].udp packetSent:vector(packetBytes):starttime nan
scalar SingleCell.ue[24].udp packetSent:vector(packetBytes):endtime nan
scalar SingleCell.ue[24].udp packetReceived:vector(packetBytes):count 0
scalar SingleCell.ue[24].udp packetReceived:vector(packetBytes):sum 0
scalar SingleCell.ue[24].udp packetReceived:vector(packetBytes):sumweights 0
scalar SingleCell.ue[24].udp packetReceived:vector(packetBytes):mean -nan
scalar SingleCell.ue[24].udp packetReceived:vector(packetBytes):stddev nan
scalar SingleCell.ue[24].udp packetReceived:vector(packetBytes):min inf
scalar SingleCell.ue[24].udp packetReceived:vector(packetBytes):max -inf
scalar SingleCell.ue[24].udp packetReceived:vector(packetBytes):starttime nan
scalar SingleCell.ue[24].udp packetReceived:vector(packetBytes):endtime nan
scalar SingleCell.ue[24].udp passedUpPk:vector(count):count 0
scalar SingleCell.ue[24].udp passedUpPk:vector(count):sum 0
scalar SingleCell.ue[24].udp passedUpPk:vector(count):sumweights 0
scalar SingleCell.ue[24].udp passedUpPk:vector(count):mean -nan
scalar SingleCell.ue[24].udp passedUpPk:vector(count):stddev nan
scalar SingleCell.ue[24].udp passedUpPk:vector(count):min inf
scalar SingleCell.ue[24].udp passedUpPk:vector(count):max -inf
scalar SingleCell.ue[24].udp passedUpPk:vector(count):starttime nan
scalar SingleCell.ue[24].udp passedUpPk:vector(count):endtime nan
scalar SingleCell.ue[24].udp droppedPkWrongPort:vector(count):count 0
scalar SingleCell.ue[24].udp droppedPkWrongPort:vector(count):sum 0
scalar SingleCell.ue[24].udp droppedPkWrongPort:vector(count):sumweights 0
scalar SingleCell.ue[24].udp droppedPkWrongPort:vector(count):mean -nan
scalar SingleCell.ue[24].udp droppedPkWrongPort:vector(count):stddev nan
scalar SingleCell.ue[24].udp droppedPkWrongPort:vector(count):min inf
scalar SingleCell.ue[24].udp droppedPkWrongPort:vector(count):max -inf
scalar SingleCell.ue[24].udp droppedPkWrongPort:vector(count):starttime nan
scalar SingleCell.ue[24].udp droppedPkWrongPort:vector(count):endtime nan
scalar SingleCell.ue[24].udp droppedPkBadChecksum:vector(count):count 0
scalar SingleCell.ue[24].udp droppedPkBadChecksum:vector(count):sum 0
scalar SingleCell.ue[24].udp droppedPkBadChecksum:vector(count):sumweights 0
scalar SingleCell.ue[24].udp droppedPkBadChecksum:vector(count):mean -nan
scalar SingleCell.ue[24].udp droppedPkBadChecksum:vector(count):stddev nan
scalar SingleCell.ue[24].udp droppedPkBadChecksum:vector(count):min inf
scalar SingleCell.ue[24].udp droppedPkBadChecksum:vector(count):max -inf
scalar SingleCell.ue[24].udp droppedPkBadChecksum:vector(count):starttime nan
scalar SingleCell.ue[24].udp droppedPkBadChecksum:vector(count):endtime nan
scalar SingleCell.ue[24].app[0] voIPFrameDelay:vector:count 0
scalar SingleCell.ue[24].app[0] voIPFrameDelay:vector:sum 0
scalar SingleCell.ue[24].app[0] voIPFrameDelay:vector:sumweights 0
scalar SingleCell.ue[24].app[0] voIPFrameDelay:vector:mean -nan
scalar SingleCell.ue[24].app[0] voIPFrameDelay:vector:stddev nan
scalar SingleCell.ue[24].app[0] voIPFrameDelay:vector:min inf
scalar SingleCell.ue[24].app[0] voIPFrameDelay:vector:max -inf
scalar SingleCell.ue[24].app[0] voIPFrameDelay:vector:starttime nan
scalar SingleCell.ue[24].app[0] voIPFrameDelay:vector:endtime nan
scalar SingleCell.ue[24].app[0] voIPReceivedThroughput:vector:count 0
scalar SingleCell.ue[24].app[0] voIPReceivedThroughput:vector:sum 0
scalar SingleCell.ue[24].app[0] voIPReceivedThroughput:vector:sumweights 0
scalar SingleCell.ue[24].app[0] voIPReceivedThroughput:vector:mean -nan
scalar SingleCell.ue[24].app[0] voIPReceivedThroughput:vector:stddev nan
scalar SingleCell.ue[24].app[0] voIPReceivedThroughput:vector:min inf
scalar SingleCell.ue[24].app[0] voIPReceivedThroughput:vector:max -inf
scalar SingleCell.ue[24].app[0] voIPReceivedThroughput:vector:starttime nan
scalar SingleCell.ue[24].app[0] voIPReceivedThroughput:vector:endtime nan
scalar SingleCell.ue[24].app[1] voIPGeneratedThroughput:vector:count 0
scalar SingleCell.ue[24].app[1] voIPGeneratedThroughput:vector:sum 0
scalar SingleCell.ue[24].app[1] voIPGeneratedThroughput:vector:sumweights 0
scalar SingleCell.ue[24].app[1] voIPGeneratedThroughput:vector:mean -nan
scalar SingleCell.ue[24].app[1] voIPGeneratedThroughput:vector:stddev nan
scalar SingleCell.ue[24].app[1] voIPGeneratedThroughput:vector:min inf
scalar SingleCell.ue[24].app[1] voIPGeneratedThroughput:vector:max -inf
scalar SingleCell.ue[24].app[1] voIPGeneratedThroughput:vector:starttime nan
scalar SingleCell.ue[24].app[1] voIPGeneratedThroughput:vector:endtime nan

