version 3
run VoIP_DL-UL-0-20260712-14:05:46-20546
attr configname VoIP_DL-UL
attr datetime 20260712-14:05:46
attr datetimef 20260712-140546
attr experiment VoIP_DL-UL
attr inifile omnetpp.ini
attr iterationvars "$numUEs=25, $directions=2"
attr iterationvarsd numUEs=25/directions=2
attr iterationvarsf numUEs=25,directions=2-
attr measurement "$numUEs=25, $directions=2"
attr network simu5g.simulations.lte.networks.SingleCell
attr processid 20546
attr repetition 0
attr replication #0
attr resultdir results
attr runnumber 0
attr seedset 0
itervar directions 2
itervar numUEs 25
config **.param-recording false
config image-path /home/andras/projects/Simu5G-fork/simu5g-fork/images
config output-scalar-file results/omnetpp.ini-VoIP_DL-UL-#0.sca
config output-scalar-precision 17
config output-vector-file results/omnetpp.ini-VoIP_DL-UL-#0.vec
config output-vector-precision 17
config record-eventlog false
config sim-time-limit 20s
config sim-time-limit 20s
config warmup-period 0s
config network simu5g.simulations.lte.networks.SingleCell
config **.numUe 25
config **.vector-recording false
config **.mac.schedulingDisciplineDl "\"MAXCI\""
config **.mac.schedulingDisciplineUl "\"MAXCI\""
config **.rbAllocationType "\"localized\""
config **.ue[*].servingNodeId 1
config *.ue[*].mobility.initFromDisplayString false
config *.ue[*].mobility.initialX uniform(200m,400m)
config *.ue[*].mobility.initialY uniform(200m,400m)
config *.ue[*].mobility.initialZ 0m
config *.ue[*].mobility.speed 0mps
config *.ue[*].mobility.typename LinearMobility
config *.eNB.mobility.initFromDisplayString false
config *.eNB.mobility.initialX 300m
config *.eNB.mobility.initialY 300m
config *.ue[*].numApps 2
config *.server.numApps "2 * 25"
config *.server.app[0..24].typename VoipReceiver
config *.server.app[0..24].localPort 4000+ancestorIndex(0)
config *.ue[*].app[1].packetSize 40B
config *.ue[*].app[1].destAddress "\"server\""
config *.ue[*].app[1].destPort 4000+ancestorIndex(1)
config *.ue[*].app[1].localPort 4088
config *.ue[*].app[1].typename VoipSender
config *.ue[*].app[1].startTime uniform(0s,0.02s)
config *.ue[*].app[0].typename VoipReceiver
config *.ue[*].app[0].localPort 3000
config *.server.app[25..].typename VoipSender
config *.server.app[25..].packetSize 40B
config *.server.app[25..].destAddress "\"ue[\"+string(ancestorIndex(0)-25)+\"]\""
config *.server.app[25..].destPort 3000
config *.server.app[25..].localPort 3088+ancestorIndex(0)
config *.server.app[25..].startTime uniform(0s,0.02s)
config sim-time-limit 20s
config output-scalar-file results/VoIP_DL-UL/0.sca
config output-vector-file results/VoIP_DL-UL/0.vec
config seed-set 0
config **.vector-recording false
config **.mobility.constraintAreaMinZ 0m
config **.mobility.constraintAreaMaxZ 0m
config **.mobility.initFromDisplayString true
config **.numBands 6
config **.ueTxPower 26dBm
config **.eNodeBTxPower 40dBm
config *.configurator.config "xmldoc(\"./demo.xml\")"

scalar SingleCell.server.lo[0].lo rcvdPkFromHl:count 0
scalar SingleCell.server.lo[0].lo rcvdPkFromHl:sum(packetBytes) 0
scalar SingleCell.server.lo[0].lo passedUpPk:count 0
scalar SingleCell.server.lo[0].lo passedUpPk:sum(packetBytes) 0
scalar SingleCell.server.lo[0] packetDropInterfaceDown:count 0
scalar SingleCell.server.lo[0] packetDropInterfaceDown:sum(packetBytes) 0
scalar SingleCell.server.lo[0] packetDropNoCarrier:count 0
scalar SingleCell.server.lo[0] packetDropNoCarrier:sum(packetBytes) 0
scalar SingleCell.server.ppp[0].queue queueLength:last 0
scalar SingleCell.server.ppp[0].queue queueLength:max 0
scalar SingleCell.server.ppp[0].queue queueLength:timeavg 0
scalar SingleCell.server.ppp[0].queue queueBitLength:last 0
scalar SingleCell.server.ppp[0].queue queueBitLength:max 0
scalar SingleCell.server.ppp[0].queue queueBitLength:timeavg 0
scalar SingleCell.server.ppp[0].queue outgoingPackets:count 16360
scalar SingleCell.server.ppp[0].queue outgoingPacketLengths:sum 8899840
scalar SingleCell.server.ppp[0].queue incomingPackets:count 16360
scalar SingleCell.server.ppp[0].queue incomingPacketLengths:sum 8899840
scalar SingleCell.server.ppp[0].queue droppedPacketsQueueOverflow:count 0
scalar SingleCell.server.ppp[0].queue droppedPacketLengthsQueueOverflow:sum 0
scalar SingleCell.server.ppp[0].ppp transmissionState:timeavg 4.9079999999991846e-05
scalar SingleCell.server.ppp[0].ppp rxPkOk:count 16426
scalar SingleCell.server.ppp[0].ppp rxPkOk:sum(packetBytes) 1231950
scalar SingleCell.server.ppp[0].ppp txPk:count 16360
scalar SingleCell.server.ppp[0].ppp txPk:sum(packetBytes) 1227000
scalar SingleCell.server.ppp[0].ppp rcvdPkFromHl:count 16360
scalar SingleCell.server.ppp[0].ppp rcvdPkFromHl:sum(packetBytes) 1112480
scalar SingleCell.server.ppp[0].ppp passedUpPk:count 16426
scalar SingleCell.server.ppp[0].ppp passedUpPk:sum(packetBytes) 1116968
scalar SingleCell.server.ppp[0].ppp packetDropIncorrectlyReceived:count 0
scalar SingleCell.server.ppp[0].ppp packetDropIncorrectlyReceived:sum(packetBytes) 0
scalar SingleCell.server.ppp[0].ppp packetDropInterfaceDown:count 0
scalar SingleCell.server.ppp[0].ppp packetDropInterfaceDown:sum(packetBytes) 0
scalar SingleCell.server.ppp[0] packetDropInterfaceDown:count 0
scalar SingleCell.server.ppp[0] packetDropInterfaceDown:sum(packetBytes) 0
scalar SingleCell.server.ppp[0] packetDropNoCarrier:count 0
scalar SingleCell.server.ppp[0] packetDropNoCarrier:sum(packetBytes) 0
scalar SingleCell.server.ipv4.ip packetDropAddressResolutionFailed:count 0
scalar SingleCell.server.ipv4.ip packetDropAddressResolutionFailed:sum(packetBytes) 0
scalar SingleCell.server.ipv4.ip packetDropHopLimitReached:count 0
scalar SingleCell.server.ipv4.ip packetDropHopLimitReached:sum(packetBytes) 0
scalar SingleCell.server.ipv4.ip packetDropForwardingDisabled:count 0
scalar SingleCell.server.ipv4.ip packetDropForwardingDisabled:sum(packetBytes) 0
scalar SingleCell.server.ipv4.ip packetDropNoInterfaceFound:count 0
scalar SingleCell.server.ipv4.ip packetDropNoInterfaceFound:sum(packetBytes) 0
scalar SingleCell.server.ipv4.ip packetDropNoRouteFound:count 0
scalar SingleCell.server.ipv4.ip packetDropNoRouteFound:sum(packetBytes) 0
scalar SingleCell.server.ipv4.ip packetDropUndefined:count 0
scalar SingleCell.server.ipv4.ip packetDropUndefined:sum(packetBytes) 0
scalar SingleCell.server.ipv4.arp arpResolutionFailed:count 0
scalar SingleCell.server.ipv4.arp arpResolutionCompleted:count 0
scalar SingleCell.server.ipv4.arp arpResolutionInitiated:count 0
scalar SingleCell.server.ipv4.arp arpReplySent:count 0
scalar SingleCell.server.ipv4.arp arpReplySent:sum(packetBytes) 0
scalar SingleCell.server.ipv4.arp arpRequestSent:count 0
scalar SingleCell.server.ipv4.arp arpRequestSent:sum(packetBytes) 0
scalar SingleCell.server.udp packetReceived:count 16426
scalar SingleCell.server.udp packetReceived:sum(packetBytes) 788448
scalar SingleCell.server.udp packetSent:count 16360
scalar SingleCell.server.udp packetSent:sum(packetBytes) 785280
scalar SingleCell.server.udp passedUpPk:count 16426
scalar SingleCell.server.udp droppedPkWrongPort:count 0
scalar SingleCell.server.udp droppedPkBadChecksum:count 0
scalar SingleCell.server.app[0] voipReceivedThroughput:simu5g_rateavg 1637.8289656334043
scalar SingleCell.server.app[0] voipPlayoutLoss:mean 0.012454448830853325
scalar SingleCell.server.app[0] voipJitter:mean 0.010166666666666669
scalar SingleCell.server.app[0] voipTaildropLoss:mean 0
scalar SingleCell.server.app[0] voipMos:mean 4.1242140102392835
scalar SingleCell.server.app[0] voipFrameDelay:mean 0.0089074086854270366
scalar SingleCell.server.app[0] voipFrameLoss:mean 0
scalar SingleCell.server.app[0] voipPlayoutDelay:mean 0.0070000000000000001
scalar SingleCell.server.app[1] voipReceivedThroughput:simu5g_rateavg 1508.6144577561308
scalar SingleCell.server.app[1] voipPlayoutLoss:mean 0.0090446639648767303
scalar SingleCell.server.app[1] voipJitter:mean 0.013333340733333336
scalar SingleCell.server.app[1] voipTaildropLoss:mean 0
scalar SingleCell.server.app[1] voipMos:mean 4.2103289994770794
scalar SingleCell.server.app[1] voipFrameDelay:mean 0.0083714751394106356
scalar SingleCell.server.app[1] voipFrameLoss:mean 0
scalar SingleCell.server.app[1] voipPlayoutDelay:mean 0.002
scalar SingleCell.server.app[2] voipReceivedThroughput:simu5g_rateavg 1908.9058069721216
scalar SingleCell.server.app[2] voipPlayoutLoss:mean 0.018265639589168998
scalar SingleCell.server.app[2] voipJitter:mean 0.0024400710399999997
scalar SingleCell.server.app[2] voipTaildropLoss:mean 0
scalar SingleCell.server.app[2] voipMos:mean 3.9796368056997977
scalar SingleCell.server.app[2] voipFrameDelay:mean 0.0086898471230729413
scalar SingleCell.server.app[2] voipFrameLoss:mean 0
scalar SingleCell.server.app[2] voipPlayoutDelay:mean 0.010499999999999999
scalar SingleCell.server.app[3] voipReceivedThroughput:simu5g_rateavg 1201.4203137862728
scalar SingleCell.server.app[3] voipPlayoutLoss:mean 0.010498687664041995
scalar SingleCell.server.app[3] voipJitter:mean 8.8799999999999961e-08
scalar SingleCell.server.app[3] voipTaildropLoss:mean 0
scalar SingleCell.server.app[3] voipMos:mean 4.2469701227565251
scalar SingleCell.server.app[3] voipFrameDelay:mean 0.014468659081802303
scalar SingleCell.server.app[3] voipFrameLoss:mean 0
scalar SingleCell.server.app[3] voipPlayoutDelay:mean 5.9200000000000002e-09
scalar SingleCell.server.app[4] voipReceivedThroughput:simu5g_rateavg 804.24784644277145
scalar SingleCell.server.app[4] voipPlayoutLoss:mean 0.016429248246631917
scalar SingleCell.server.app[4] voipJitter:mean 0.010750014800000001
scalar SingleCell.server.app[4] voipTaildropLoss:mean 0
scalar SingleCell.server.app[4] voipMos:mean 4.0453255349766941
scalar SingleCell.server.app[4] voipFrameDelay:mean 0.009017718304770151
scalar SingleCell.server.app[4] voipFrameLoss:mean 0
scalar SingleCell.server.app[4] voipPlayoutDelay:mean 0.0066363878545454549
scalar SingleCell.server.app[5] voipReceivedThroughput:simu5g_rateavg 751.67336196944245
scalar SingleCell.server.app[5] voipPlayoutLoss:mean 0.030813027111984893
scalar SingleCell.server.app[5] voipJitter:mean 0.0018000659657142846
scalar SingleCell.server.app[5] voipTaildropLoss:mean 0
scalar SingleCell.server.app[5] voipMos:mean 3.8390346204336239
scalar SingleCell.server.app[5] voipFrameDelay:mean 0.0087931433704195577
scalar SingleCell.server.app[5] voipFrameLoss:mean 0
scalar SingleCell.server.app[5] voipPlayoutDelay:mean 0.0041999999999999997
scalar SingleCell.server.app[6] voipReceivedThroughput:simu5g_rateavg 1415.3561279927449
scalar SingleCell.server.app[6] voipPlayoutLoss:mean 0.0189026664180496
scalar SingleCell.server.app[6] voipJitter:mean 0.0071765176000000014
scalar SingleCell.server.app[6] voipTaildropLoss:mean 0
scalar SingleCell.server.app[6] voipMos:mean 4.0105746502137727
scalar SingleCell.server.app[6] voipFrameDelay:mean 0.0084239819141100659
scalar SingleCell.server.app[6] voipFrameLoss:mean 0
scalar SingleCell.server.app[6] voipPlayoutDelay:mean 0.0028750110999999998
scalar SingleCell.server.app[7] voipReceivedThroughput:simu5g_rateavg 924.50505835624051
scalar SingleCell.server.app[7] voipPlayoutLoss:mean 0.028694502378712905
scalar SingleCell.server.app[7] voipJitter:mean 0.014047580990476191
scalar SingleCell.server.app[7] voipTaildropLoss:mean 0
scalar SingleCell.server.app[7] voipMos:mean 3.8674090537742916
scalar SingleCell.server.app[7] voipFrameDelay:mean 0.0091272938458028443
scalar SingleCell.server.app[7] voipFrameLoss:mean 0
scalar SingleCell.server.app[7] voipPlayoutDelay:mean 0.0085454626181818184
scalar SingleCell.server.app[8] voipReceivedThroughput:simu5g_rateavg 1515.0312156842945
scalar SingleCell.server.app[8] voipPlayoutLoss:mean 0.023248106060606059
scalar SingleCell.server.app[8] voipJitter:mean 0.010066595626666668
scalar SingleCell.server.app[8] voipTaildropLoss:mean 0
scalar SingleCell.server.app[8] voipMos:mean 4.0036920586805707
scalar SingleCell.server.app[8] voipFrameDelay:mean 0.0090006973055040407
scalar SingleCell.server.app[8] voipFrameLoss:mean 0
scalar SingleCell.server.app[8] voipPlayoutDelay:mean 0.011374988899999999
scalar SingleCell.server.app[9] voipReceivedThroughput:simu5g_rateavg 1594.8643091045678
scalar SingleCell.server.app[9] voipPlayoutLoss:mean 0.017205933319470436
scalar SingleCell.server.app[9] voipJitter:mean 0.0089999302285714271
scalar SingleCell.server.app[9] voipTaildropLoss:mean 0
scalar SingleCell.server.app[9] voipMos:mean 4.0153765148431733
scalar SingleCell.server.app[9] voipFrameDelay:mean 0.0087004174215250443
scalar SingleCell.server.app[9] voipFrameLoss:mean 0
scalar SingleCell.server.app[9] voipPlayoutDelay:mean 0.0051111308444444434
scalar SingleCell.server.app[10] voipReceivedThroughput:simu5g_rateavg 1246.6763401020762
scalar SingleCell.server.app[10] voipPlayoutLoss:mean 0.082616696711460713
scalar SingleCell.server.app[10] voipJitter:mean 0.00042865811428571344
scalar SingleCell.server.app[10] voipTaildropLoss:mean 0
scalar SingleCell.server.app[10] voipMos:mean 3.9761894775842017
scalar SingleCell.server.app[10] voipFrameDelay:mean 0.008506989465470462
scalar SingleCell.server.app[10] voipFrameLoss:mean 0
scalar SingleCell.server.app[10] voipPlayoutDelay:mean 0.002777807377777778
scalar SingleCell.server.app[11] voipReceivedThroughput:simu5g_rateavg 1505.4207014924837
scalar SingleCell.server.app[11] voipPlayoutLoss:mean 0.01029548627268497
scalar SingleCell.server.app[11] voipJitter:mean 0.0066000532799999996
scalar SingleCell.server.app[11] voipTaildropLoss:mean 0
scalar SingleCell.server.app[11] voipMos:mean 4.1674775157370938
scalar SingleCell.server.app[11] voipFrameDelay:mean 0.0084283096565992872
scalar SingleCell.server.app[11] voipFrameLoss:mean 0
scalar SingleCell.server.app[11] voipPlayoutDelay:mean 0.003833348133333333
scalar SingleCell.server.app[12] voipReceivedThroughput:simu5g_rateavg 1243.0423371525437
scalar SingleCell.server.app[12] voipPlayoutLoss:mean 0.0048276371152284631
scalar SingleCell.server.app[12] voipJitter:mean 0.0036000355200000002
scalar SingleCell.server.app[12] voipTaildropLoss:mean 0
scalar SingleCell.server.app[12] voipMos:mean 4.3002007297008555
scalar SingleCell.server.app[12] voipFrameDelay:mean 0.0085631179313525735
scalar SingleCell.server.app[12] voipFrameLoss:mean 0
scalar SingleCell.server.app[12] voipPlayoutDelay:mean 0.0016000177599999998
scalar SingleCell.server.app[13] voipReceivedThroughput:simu5g_rateavg 1658.5871885031013
scalar SingleCell.server.app[13] voipPlayoutLoss:mean 0.035619115941520105
scalar SingleCell.server.app[13] voipJitter:mean 0.0011400692639999992
scalar SingleCell.server.app[13] voipTaildropLoss:mean 0
scalar SingleCell.server.app[13] voipMos:mean 3.9629316153137952
scalar SingleCell.server.app[13] voipFrameDelay:mean 0.0088523152655433836
scalar SingleCell.server.app[13] voipFrameLoss:mean 0
scalar SingleCell.server.app[13] voipPlayoutDelay:mean 0.0083333826666666666
scalar SingleCell.server.app[14] voipReceivedThroughput:simu5g_rateavg 1769.2004098751111
scalar SingleCell.server.app[14] voipPlayoutLoss:mean 0.074778879656928435
scalar SingleCell.server.app[14] voipJitter:mean 0.00084241835412186101
scalar SingleCell.server.app[14] voipTaildropLoss:mean 0
scalar SingleCell.server.app[14] voipMos:mean 3.9444065928908096
scalar SingleCell.server.app[14] voipFrameDelay:mean 0.0086565412627319961
scalar SingleCell.server.app[14] voipFrameLoss:mean 0
scalar SingleCell.server.app[14] voipPlayoutDelay:mean 0.0094285587428571422
scalar SingleCell.server.app[15] voipReceivedThroughput:simu5g_rateavg 1046.2765443031726
scalar SingleCell.server.app[15] voipPlayoutLoss:mean 0.065807819618817223
scalar SingleCell.server.app[15] voipJitter:mean 0.0085999644799999997
scalar SingleCell.server.app[15] voipTaildropLoss:mean 0
scalar SingleCell.server.app[15] voipMos:mean 3.8602839228716532
scalar SingleCell.server.app[15] voipFrameDelay:mean 0.0089268734162403236
scalar SingleCell.server.app[15] voipFrameLoss:mean 0
scalar SingleCell.server.app[15] voipPlayoutDelay:mean 0.0058181898909090901
scalar SingleCell.server.app[16] voipReceivedThroughput:simu5g_rateavg 1252.1498258570687
scalar SingleCell.server.app[16] voipPlayoutLoss:mean 0.11177203548120301
scalar SingleCell.server.app[16] voipJitter:mean 0.00090233976541353696
scalar SingleCell.server.app[16] voipTaildropLoss:mean 0
scalar SingleCell.server.app[16] voipMos:mean 3.7808027942946412
scalar SingleCell.server.app[16] voipFrameDelay:mean 0.0085280277688943255
scalar SingleCell.server.app[16] voipFrameLoss:mean 0
scalar SingleCell.server.app[16] voipPlayoutDelay:mean 0.0033077128000000003
scalar SingleCell.server.app[17] voipReceivedThroughput:simu5g_rateavg 1168.4553328446475
scalar SingleCell.server.app[17] voipPlayoutLoss:mean 0.09759689316339562
scalar SingleCell.server.app[17] voipJitter:mean 0.00078190294545454593
scalar SingleCell.server.app[17] voipTaildropLoss:mean 0
scalar SingleCell.server.app[17] voipMos:mean 3.4454970491680372
scalar SingleCell.server.app[17] voipFrameDelay:mean 0.0085318210884730867
scalar SingleCell.server.app[17] voipFrameLoss:mean 0
scalar SingleCell.server.app[17] voipPlayoutDelay:mean 0.0047142983999999997
scalar SingleCell.server.app[18] voipReceivedThroughput:simu5g_rateavg 967.95656676145654
scalar SingleCell.server.app[18] voipPlayoutLoss:mean 0.05892602767602767
scalar SingleCell.server.app[18] voipJitter:mean 0.0012292406666666667
scalar SingleCell.server.app[18] voipTaildropLoss:mean 0
scalar SingleCell.server.app[18] voipMos:mean 3.7056831126079448
scalar SingleCell.server.app[18] voipFrameDelay:mean 0.0087872248896153447
scalar SingleCell.server.app[18] voipFrameLoss:mean 0
scalar SingleCell.server.app[18] voipPlayoutDelay:mean 0.0046667702666666668
scalar SingleCell.server.app[19] voipReceivedThroughput:simu5g_rateavg 1645.563606698066
scalar SingleCell.server.app[19] voipPlayoutLoss:mean 0.099536777380665006
scalar SingleCell.server.app[19] voipJitter:mean 0.0012055500054794549
scalar SingleCell.server.app[19] voipTaildropLoss:mean 0
scalar SingleCell.server.app[19] voipMos:mean 3.5565155281776928
scalar SingleCell.server.app[19] voipFrameDelay:mean 0.0085957802654021559
scalar SingleCell.server.app[19] voipFrameLoss:mean 0
scalar SingleCell.server.app[19] voipPlayoutDelay:mean 0.0039231110769230764
scalar SingleCell.server.app[20] voipReceivedThroughput:simu5g_rateavg 1570.2478001574493
scalar SingleCell.server.app[20] voipPlayoutLoss:mean 0.040409288716927352
scalar SingleCell.server.app[20] voipJitter:mean 0.0021177071294117646
scalar SingleCell.server.app[20] voipTaildropLoss:mean 0
scalar SingleCell.server.app[20] voipMos:mean 3.6441043141171363
scalar SingleCell.server.app[20] voipFrameDelay:mean 0.008940311971249568
scalar SingleCell.server.app[20] voipFrameLoss:mean 0
scalar SingleCell.server.app[20] voipPlayoutDelay:mean 0.012333348133333333
scalar SingleCell.server.app[21] voipReceivedThroughput:simu5g_rateavg 1243.0231562442423
scalar SingleCell.server.app[21] voipPlayoutLoss:mean 0.22005076053335562
scalar SingleCell.server.app[21] voipJitter:mean 0.0015778599999999976
scalar SingleCell.server.app[21] voipTaildropLoss:mean 0
scalar SingleCell.server.app[21] voipMos:mean 3.0179593655329366
scalar SingleCell.server.app[21] voipFrameDelay:mean 0.0090606022257301994
scalar SingleCell.server.app[21] voipFrameLoss:mean 0
scalar SingleCell.server.app[21] voipPlayoutDelay:mean 0.009666681466666667
scalar SingleCell.server.app[22] voipReceivedThroughput:simu5g_rateavg 1468.8630045641444
scalar SingleCell.server.app[22] voipPlayoutLoss:mean 0.11278154659818751
scalar SingleCell.server.app[22] voipJitter:mean 0.00381480494814815
scalar SingleCell.server.app[22] voipTaildropLoss:mean 0
scalar SingleCell.server.app[22] voipMos:mean 3.6361143561640588
scalar SingleCell.server.app[22] voipFrameDelay:mean 0.0088427481017724525
scalar SingleCell.server.app[22] voipFrameLoss:mean 0
scalar SingleCell.server.app[22] voipPlayoutDelay:mean 0.0031000266399999997
scalar SingleCell.server.app[23] voipReceivedThroughput:simu5g_rateavg 1658.9632447093356
scalar SingleCell.server.app[23] voipPlayoutLoss:mean 0.04194463358043999
scalar SingleCell.server.app[23] voipJitter:mean 0.0032235638870588223
scalar SingleCell.server.app[23] voipTaildropLoss:mean 0
scalar SingleCell.server.app[23] voipMos:mean 3.750634416708881
scalar SingleCell.server.app[23] voipFrameDelay:mean 0.0088480259356062199
scalar SingleCell.server.app[23] voipFrameLoss:mean 0
scalar SingleCell.server.app[23] voipPlayoutDelay:mean 0.0089999999999999993
scalar SingleCell.server.app[24] voipReceivedThroughput:simu5g_rateavg 1021.9131448198614
scalar SingleCell.server.app[24] voipPlayoutLoss:mean 0.16318207016710223
scalar SingleCell.server.app[24] voipJitter:mean 0.00032152450714285994
scalar SingleCell.server.app[24] voipTaildropLoss:mean 0
scalar SingleCell.server.app[24] voipMos:mean 3.6478250765596525
scalar SingleCell.server.app[24] voipFrameDelay:mean 0.0084982208269105877
scalar SingleCell.server.app[24] voipFrameLoss:mean 0
scalar SingleCell.server.app[24] voipPlayoutDelay:mean 0.0024444641777777781
scalar SingleCell.server.app[25] voipGeneratedThroughput:simu5g_rateavg 1281.6935689749482
scalar SingleCell.server.app[26] voipGeneratedThroughput:simu5g_rateavg 441.87556038776978
scalar SingleCell.server.app[27] voipGeneratedThroughput:simu5g_rateavg 1651.1640137878974
scalar SingleCell.server.app[28] voipGeneratedThroughput:simu5g_rateavg 1518.199158847355
scalar SingleCell.server.app[29] voipGeneratedThroughput:simu5g_rateavg 1687.5007404438772
scalar SingleCell.server.app[30] voipGeneratedThroughput:simu5g_rateavg 1018.2312273637641
scalar SingleCell.server.app[31] voipGeneratedThroughput:simu5g_rateavg 1382.4730159225439
scalar SingleCell.server.app[32] voipGeneratedThroughput:simu5g_rateavg 1433.8680118472644
scalar SingleCell.server.app[33] voipGeneratedThroughput:simu5g_rateavg 1435.7183015950641
scalar SingleCell.server.app[34] voipGeneratedThroughput:simu5g_rateavg 1153.662970972056
scalar SingleCell.server.app[35] voipGeneratedThroughput:simu5g_rateavg 1409.2129246945726
scalar SingleCell.server.app[36] voipGeneratedThroughput:simu5g_rateavg 1222.1008376926234
scalar SingleCell.server.app[37] voipGeneratedThroughput:simu5g_rateavg 528.42405193349612
scalar SingleCell.server.app[38] voipGeneratedThroughput:simu5g_rateavg 1346.2411205671194
scalar SingleCell.server.app[39] voipGeneratedThroughput:simu5g_rateavg 1370.935485850996
scalar SingleCell.server.app[40] voipGeneratedThroughput:simu5g_rateavg 1256.4197336459913
scalar SingleCell.server.app[41] voipGeneratedThroughput:simu5g_rateavg 1003.478104568001
scalar SingleCell.server.app[42] voipGeneratedThroughput:simu5g_rateavg 1485.7942959636093
scalar SingleCell.server.app[43] voipGeneratedThroughput:simu5g_rateavg 1500.3917200088952
scalar SingleCell.server.app[44] voipGeneratedThroughput:simu5g_rateavg 1601.4234919013008
scalar SingleCell.server.app[45] voipGeneratedThroughput:simu5g_rateavg 1219.4763001268736
scalar SingleCell.server.app[46] voipGeneratedThroughput:simu5g_rateavg 1145.465389961349
scalar SingleCell.server.app[47] voipGeneratedThroughput:simu5g_rateavg 899.1704174245109
scalar SingleCell.server.app[48] voipGeneratedThroughput:simu5g_rateavg 931.19266416006553
scalar SingleCell.server.app[49] voipGeneratedThroughput:simu5g_rateavg 1753.3733486736808
scalar SingleCell.router.lo[0].lo rcvdPkFromHl:count 0
scalar SingleCell.router.lo[0].lo rcvdPkFromHl:sum(packetBytes) 0
scalar SingleCell.router.lo[0].lo passedUpPk:count 0
scalar SingleCell.router.lo[0].lo passedUpPk:sum(packetBytes) 0
scalar SingleCell.router.lo[0] packetDropInterfaceDown:count 0
scalar SingleCell.router.lo[0] packetDropInterfaceDown:sum(packetBytes) 0
scalar SingleCell.router.lo[0] packetDropNoCarrier:count 0
scalar SingleCell.router.lo[0] packetDropNoCarrier:sum(packetBytes) 0
scalar SingleCell.router.ppp[0].queue queueLength:last 0
scalar SingleCell.router.ppp[0].queue queueLength:max 0
scalar SingleCell.router.ppp[0].queue queueLength:timeavg 0
scalar SingleCell.router.ppp[0].queue queueBitLength:last 0
scalar SingleCell.router.ppp[0].queue queueBitLength:max 0
scalar SingleCell.router.ppp[0].queue queueBitLength:timeavg 0
scalar SingleCell.router.ppp[0].queue outgoingPackets:count 16426
scalar SingleCell.router.ppp[0].queue outgoingPacketLengths:sum 8935744
scalar SingleCell.router.ppp[0].queue incomingPackets:count 16426
scalar SingleCell.router.ppp[0].queue incomingPacketLengths:sum 8935744
scalar SingleCell.router.ppp[0].queue droppedPacketsQueueOverflow:count 0
scalar SingleCell.router.ppp[0].queue droppedPacketLengthsQueueOverflow:sum 0
scalar SingleCell.router.ppp[0].ppp transmissionState:timeavg 4.9277999999992104e-05
scalar SingleCell.router.ppp[0].ppp rxPkOk:count 16360
scalar SingleCell.router.ppp[0].ppp rxPkOk:sum(packetBytes) 1227000
scalar SingleCell.router.ppp[0].ppp txPk:count 16426
scalar SingleCell.router.ppp[0].ppp txPk:sum(packetBytes) 1231950
scalar SingleCell.router.ppp[0].ppp rcvdPkFromHl:count 16426
scalar SingleCell.router.ppp[0].ppp rcvdPkFromHl:sum(packetBytes) 1116968
scalar SingleCell.router.ppp[0].ppp passedUpPk:count 16360
scalar SingleCell.router.ppp[0].ppp passedUpPk:sum(packetBytes) 1112480
scalar SingleCell.router.ppp[0].ppp packetDropIncorrectlyReceived:count 0
scalar SingleCell.router.ppp[0].ppp packetDropIncorrectlyReceived:sum(packetBytes) 0
scalar SingleCell.router.ppp[0].ppp packetDropInterfaceDown:count 0
scalar SingleCell.router.ppp[0].ppp packetDropInterfaceDown:sum(packetBytes) 0
scalar SingleCell.router.ppp[0] packetDropInterfaceDown:count 0
scalar SingleCell.router.ppp[0] packetDropInterfaceDown:sum(packetBytes) 0
scalar SingleCell.router.ppp[0] packetDropNoCarrier:count 0
scalar SingleCell.router.ppp[0] packetDropNoCarrier:sum(packetBytes) 0
scalar SingleCell.router.ppp[1].queue queueLength:last 0
scalar SingleCell.router.ppp[1].queue queueLength:max 0
scalar SingleCell.router.ppp[1].queue queueLength:timeavg 0
scalar SingleCell.router.ppp[1].queue queueBitLength:last 0
scalar SingleCell.router.ppp[1].queue queueBitLength:max 0
scalar SingleCell.router.ppp[1].queue queueBitLength:timeavg 0
scalar SingleCell.router.ppp[1].queue outgoingPackets:count 16360
scalar SingleCell.router.ppp[1].queue outgoingPacketLengths:sum 8899840
scalar SingleCell.router.ppp[1].queue incomingPackets:count 16360
scalar SingleCell.router.ppp[1].queue incomingPacketLengths:sum 8899840
scalar SingleCell.router.ppp[1].queue droppedPacketsQueueOverflow:count 0
scalar SingleCell.router.ppp[1].queue droppedPacketLengthsQueueOverflow:sum 0
scalar SingleCell.router.ppp[1].ppp transmissionState:timeavg 4.9079999999991846e-05
scalar SingleCell.router.ppp[1].ppp rxPkOk:count 16426
scalar SingleCell.router.ppp[1].ppp rxPkOk:sum(packetBytes) 1231950
scalar SingleCell.router.ppp[1].ppp txPk:count 16360
scalar SingleCell.router.ppp[1].ppp txPk:sum(packetBytes) 1227000
scalar SingleCell.router.ppp[1].ppp rcvdPkFromHl:count 16360
scalar SingleCell.router.ppp[1].ppp rcvdPkFromHl:sum(packetBytes) 1112480
scalar SingleCell.router.ppp[1].ppp passedUpPk:count 16426
scalar SingleCell.router.ppp[1].ppp passedUpPk:sum(packetBytes) 1116968
scalar SingleCell.router.ppp[1].ppp packetDropIncorrectlyReceived:count 0
scalar SingleCell.router.ppp[1].ppp packetDropIncorrectlyReceived:sum(packetBytes) 0
scalar SingleCell.router.ppp[1].ppp packetDropInterfaceDown:count 0
scalar SingleCell.router.ppp[1].ppp packetDropInterfaceDown:sum(packetBytes) 0
scalar SingleCell.router.ppp[1] packetDropInterfaceDown:count 0
scalar SingleCell.router.ppp[1] packetDropInterfaceDown:sum(packetBytes) 0
scalar SingleCell.router.ppp[1] packetDropNoCarrier:count 0
scalar SingleCell.router.ppp[1] packetDropNoCarrier:sum(packetBytes) 0
scalar SingleCell.router.ipv4.ip packetDropAddressResolutionFailed:count 0
scalar SingleCell.router.ipv4.ip packetDropAddressResolutionFailed:sum(packetBytes) 0
scalar SingleCell.router.ipv4.ip packetDropHopLimitReached:count 0
scalar SingleCell.router.ipv4.ip packetDropHopLimitReached:sum(packetBytes) 0
scalar SingleCell.router.ipv4.ip packetDropForwardingDisabled:count 0
scalar SingleCell.router.ipv4.ip packetDropForwardingDisabled:sum(packetBytes) 0
scalar SingleCell.router.ipv4.ip packetDropNoInterfaceFound:count 0
scalar SingleCell.router.ipv4.ip packetDropNoInterfaceFound:sum(packetBytes) 0
scalar SingleCell.router.ipv4.ip packetDropNoRouteFound:count 0
scalar SingleCell.router.ipv4.ip packetDropNoRouteFound:sum(packetBytes) 0
scalar SingleCell.router.ipv4.ip packetDropUndefined:count 0
scalar SingleCell.router.ipv4.ip packetDropUndefined:sum(packetBytes) 0
scalar SingleCell.router.ipv4.arp arpResolutionFailed:count 0
scalar SingleCell.router.ipv4.arp arpResolutionCompleted:count 0
scalar SingleCell.router.ipv4.arp arpResolutionInitiated:count 0
scalar SingleCell.router.ipv4.arp arpReplySent:count 0
scalar SingleCell.router.ipv4.arp arpReplySent:sum(packetBytes) 0
scalar SingleCell.router.ipv4.arp arpRequestSent:count 0
scalar SingleCell.router.ipv4.arp arpRequestSent:sum(packetBytes) 0
scalar SingleCell.pgw.lo[0].lo rcvdPkFromHl:count 0
scalar SingleCell.pgw.lo[0].lo rcvdPkFromHl:sum(packetBytes) 0
scalar SingleCell.pgw.lo[0].lo passedUpPk:count 0
scalar SingleCell.pgw.lo[0].lo passedUpPk:sum(packetBytes) 0
scalar SingleCell.pgw.lo[0] packetDropInterfaceDown:count 0
scalar SingleCell.pgw.lo[0] packetDropInterfaceDown:sum(packetBytes) 0
scalar SingleCell.pgw.lo[0] packetDropNoCarrier:count 0
scalar SingleCell.pgw.lo[0] packetDropNoCarrier:sum(packetBytes) 0
scalar SingleCell.pgw.ppp[0].queue queueLength:last 0
scalar SingleCell.pgw.ppp[0].queue queueLength:max 0
scalar SingleCell.pgw.ppp[0].queue queueLength:timeavg 0
scalar SingleCell.pgw.ppp[0].queue queueBitLength:last 0
scalar SingleCell.pgw.ppp[0].queue queueBitLength:max 0
scalar SingleCell.pgw.ppp[0].queue queueBitLength:timeavg 0
scalar SingleCell.pgw.ppp[0].queue outgoingPackets:count 16360
scalar SingleCell.pgw.ppp[0].queue outgoingPacketLengths:sum 13611520
scalar SingleCell.pgw.ppp[0].queue incomingPackets:count 16360
scalar SingleCell.pgw.ppp[0].queue incomingPacketLengths:sum 13611520
scalar SingleCell.pgw.ppp[0].queue droppedPacketsQueueOverflow:count 0
scalar SingleCell.pgw.ppp[0].queue droppedPacketLengthsQueueOverflow:sum 0
scalar SingleCell.pgw.ppp[0].ppp transmissionState:timeavg 7.2638399999985803e-05
scalar SingleCell.pgw.ppp[0].ppp rxPkOk:count 16426
scalar SingleCell.pgw.ppp[0].ppp rxPkOk:sum(packetBytes) 1823286
scalar SingleCell.pgw.ppp[0].ppp txPk:count 16360
scalar SingleCell.pgw.ppp[0].ppp txPk:sum(packetBytes) 1815960
scalar SingleCell.pgw.ppp[0].ppp rcvdPkFromHl:count 16360
scalar SingleCell.pgw.ppp[0].ppp rcvdPkFromHl:sum(packetBytes) 1701440
scalar SingleCell.pgw.ppp[0].ppp passedUpPk:count 16426
scalar SingleCell.pgw.ppp[0].ppp passedUpPk:sum(packetBytes) 1708304
scalar SingleCell.pgw.ppp[0].ppp packetDropIncorrectlyReceived:count 0
scalar SingleCell.pgw.ppp[0].ppp packetDropIncorrectlyReceived:sum(packetBytes) 0
scalar SingleCell.pgw.ppp[0].ppp packetDropInterfaceDown:count 0
scalar SingleCell.pgw.ppp[0].ppp packetDropInterfaceDown:sum(packetBytes) 0
scalar SingleCell.pgw.ppp[0] packetDropInterfaceDown:count 0
scalar SingleCell.pgw.ppp[0] packetDropInterfaceDown:sum(packetBytes) 0
scalar SingleCell.pgw.ppp[0] packetDropNoCarrier:count 0
scalar SingleCell.pgw.ppp[0] packetDropNoCarrier:sum(packetBytes) 0
scalar SingleCell.pgw.ipv4.ip packetDropAddressResolutionFailed:count 0
scalar SingleCell.pgw.ipv4.ip packetDropAddressResolutionFailed:sum(packetBytes) 0
scalar SingleCell.pgw.ipv4.ip packetDropHopLimitReached:count 0
scalar SingleCell.pgw.ipv4.ip packetDropHopLimitReached:sum(packetBytes) 0
scalar SingleCell.pgw.ipv4.ip packetDropForwardingDisabled:count 0
scalar SingleCell.pgw.ipv4.ip packetDropForwardingDisabled:sum(packetBytes) 0
scalar SingleCell.pgw.ipv4.ip packetDropNoInterfaceFound:count 0
scalar SingleCell.pgw.ipv4.ip packetDropNoInterfaceFound:sum(packetBytes) 0
scalar SingleCell.pgw.ipv4.ip packetDropNoRouteFound:count 0
scalar SingleCell.pgw.ipv4.ip packetDropNoRouteFound:sum(packetBytes) 0
scalar SingleCell.pgw.ipv4.ip packetDropUndefined:count 0
scalar SingleCell.pgw.ipv4.ip packetDropUndefined:sum(packetBytes) 0
scalar SingleCell.pgw.ipv4.arp arpResolutionFailed:count 0
scalar SingleCell.pgw.ipv4.arp arpResolutionCompleted:count 0
scalar SingleCell.pgw.ipv4.arp arpResolutionInitiated:count 0
scalar SingleCell.pgw.ipv4.arp arpReplySent:count 0
scalar SingleCell.pgw.ipv4.arp arpReplySent:sum(packetBytes) 0
scalar SingleCell.pgw.ipv4.arp arpRequestSent:count 0
scalar SingleCell.pgw.ipv4.arp arpRequestSent:sum(packetBytes) 0
scalar SingleCell.pgw.pppIf.queue queueLength:last 0
scalar SingleCell.pgw.pppIf.queue queueLength:max 0
scalar SingleCell.pgw.pppIf.queue queueLength:timeavg 0
scalar SingleCell.pgw.pppIf.queue queueBitLength:last 0
scalar SingleCell.pgw.pppIf.queue queueBitLength:max 0
scalar SingleCell.pgw.pppIf.queue queueBitLength:timeavg 0
scalar SingleCell.pgw.pppIf.queue outgoingPackets:count 16426
scalar SingleCell.pgw.pppIf.queue outgoingPacketLengths:sum 8935744
scalar SingleCell.pgw.pppIf.queue incomingPackets:count 16426
scalar SingleCell.pgw.pppIf.queue incomingPacketLengths:sum 8935744
scalar SingleCell.pgw.pppIf.queue droppedPacketsQueueOverflow:count 0
scalar SingleCell.pgw.pppIf.queue droppedPacketLengthsQueueOverflow:sum 0
scalar SingleCell.pgw.pppIf.ppp transmissionState:timeavg 4.9277999999992104e-05
scalar SingleCell.pgw.pppIf.ppp rxPkOk:count 16360
scalar SingleCell.pgw.pppIf.ppp rxPkOk:sum(packetBytes) 1227000
scalar SingleCell.pgw.pppIf.ppp txPk:count 16426
scalar SingleCell.pgw.pppIf.ppp txPk:sum(packetBytes) 1231950
scalar SingleCell.pgw.pppIf.ppp rcvdPkFromHl:count 16426
scalar SingleCell.pgw.pppIf.ppp rcvdPkFromHl:sum(packetBytes) 1116968
scalar SingleCell.pgw.pppIf.ppp passedUpPk:count 16360
scalar SingleCell.pgw.pppIf.ppp passedUpPk:sum(packetBytes) 1112480
scalar SingleCell.pgw.pppIf.ppp packetDropIncorrectlyReceived:count 0
scalar SingleCell.pgw.pppIf.ppp packetDropIncorrectlyReceived:sum(packetBytes) 0
scalar SingleCell.pgw.pppIf.ppp packetDropInterfaceDown:count 0
scalar SingleCell.pgw.pppIf.ppp packetDropInterfaceDown:sum(packetBytes) 0
scalar SingleCell.pgw.pppIf packetDropInterfaceDown:count 0
scalar SingleCell.pgw.pppIf packetDropInterfaceDown:sum(packetBytes) 0
scalar SingleCell.pgw.pppIf packetDropNoCarrier:count 0
scalar SingleCell.pgw.pppIf packetDropNoCarrier:sum(packetBytes) 0
scalar SingleCell.pgw.udp packetReceived:count 16426
scalar SingleCell.pgw.udp packetReceived:sum(packetBytes) 1379784
scalar SingleCell.pgw.udp packetSent:count 16360
scalar SingleCell.pgw.udp packetSent:sum(packetBytes) 1374240
scalar SingleCell.pgw.udp passedUpPk:count 16426
scalar SingleCell.pgw.udp droppedPkWrongPort:count 0
scalar SingleCell.pgw.udp droppedPkBadChecksum:count 0
scalar SingleCell.eNB.cellularNic.pdcp sentPacketToLowerLayer:count 16360
scalar SingleCell.eNB.cellularNic.pdcp sentPacketToLowerLayer:sum(packetBytes) 1128840
scalar SingleCell.eNB.cellularNic.pdcp sentPacketToUpperLayer:count 16427
scalar SingleCell.eNB.cellularNic.pdcp sentPacketToUpperLayer:sum(packetBytes) 1117036
scalar SingleCell.eNB.cellularNic.pdcp receivedPacketFromLowerLayer:count 16427
scalar SingleCell.eNB.cellularNic.pdcp receivedPacketFromLowerLayer:sum(packetBytes) 1133463
scalar SingleCell.eNB.cellularNic.pdcp receivedPacketFromUpperLayer:count 16360
scalar SingleCell.eNB.cellularNic.pdcp receivedPacketFromUpperLayer:sum(packetBytes) 1112480
scalar SingleCell.eNB.cellularNic.rlc.tm rlcPacketLossUl:mean -nan
scalar SingleCell.eNB.cellularNic.rlc.tm rlcPacketLossUl:sum 0
scalar SingleCell.eNB.cellularNic.rlc.tm rlcPacketLossDl:mean -nan
scalar SingleCell.eNB.cellularNic.rlc.tm rlcPacketLossDl:sum 0
scalar SingleCell.eNB.cellularNic.rlc.tm sentPacketToLowerLayer:count 0
scalar SingleCell.eNB.cellularNic.rlc.tm sentPacketToLowerLayer:sum(packetBytes) 0
scalar SingleCell.eNB.cellularNic.rlc.tm sentPacketToUpperLayer:count 0
scalar SingleCell.eNB.cellularNic.rlc.tm sentPacketToUpperLayer:sum(packetBytes) 0
scalar SingleCell.eNB.cellularNic.rlc.tm receivedPacketFromLowerLayer:count 0
scalar SingleCell.eNB.cellularNic.rlc.tm receivedPacketFromLowerLayer:sum(packetBytes) 0
scalar SingleCell.eNB.cellularNic.rlc.tm receivedPacketFromUpperLayer:count 0
scalar SingleCell.eNB.cellularNic.rlc.tm receivedPacketFromUpperLayer:sum(packetBytes) 0
scalar SingleCell.eNB.cellularNic.rlc.um rlcCellThroughputUl:simu5g_rateavg 115923.67361968686
scalar SingleCell.eNB.cellularNic.rlc.um rlcCellThroughputDl:simu5g_rateavg 115933.19657472751
scalar SingleCell.eNB.cellularNic.rlc.um rlcPduThroughputUl:simu5g_rateavg -nan
scalar SingleCell.eNB.cellularNic.rlc.um rlcPduThroughputDl:simu5g_rateavg -nan
scalar SingleCell.eNB.cellularNic.rlc.um rlcPduDelayUl:mean -nan
scalar SingleCell.eNB.cellularNic.rlc.um rlcPduDelayDl:mean -nan
scalar SingleCell.eNB.cellularNic.rlc.um rlcThroughputUl:simu5g_rateavg -nan
scalar SingleCell.eNB.cellularNic.rlc.um rlcThroughputDl:simu5g_rateavg -nan
scalar SingleCell.eNB.cellularNic.rlc.um rlcDelayUl:mean -nan
scalar SingleCell.eNB.cellularNic.rlc.um rlcDelayDl:mean -nan
scalar SingleCell.eNB.cellularNic.rlc.um sentPacketToLowerLayer:count 16360
scalar SingleCell.eNB.cellularNic.rlc.um sentPacketToLowerLayer:sum(packetBytes) 1161560
scalar SingleCell.eNB.cellularNic.rlc.um sentPacketToUpperLayer:count 16427
scalar SingleCell.eNB.cellularNic.rlc.um sentPacketToUpperLayer:sum(packetBytes) 1133463
scalar SingleCell.eNB.cellularNic.rlc.um receivedPacketFromLowerLayer:count 16948
scalar SingleCell.eNB.cellularNic.rlc.um receivedPacketFromLowerLayer:sum(packetBytes) 1167359
scalar SingleCell.eNB.cellularNic.rlc.um receivedPacketFromUpperLayer:count 16360
scalar SingleCell.eNB.cellularNic.rlc.um receivedPacketFromUpperLayer:sum(packetBytes) 1128840
scalar SingleCell.eNB.cellularNic.rlc.am rlcPacketLossTotal:mean -nan
scalar SingleCell.eNB.cellularNic.rlc.am rlcCellThroughputUl:simu5g_rateavg -nan
scalar SingleCell.eNB.cellularNic.rlc.am rlcCellThroughputDl:simu5g_rateavg -nan
scalar SingleCell.eNB.cellularNic.rlc.am rlcPduThroughputUl:simu5g_rateavg -nan
scalar SingleCell.eNB.cellularNic.rlc.am rlcPduThroughputDl:simu5g_rateavg -nan
scalar SingleCell.eNB.cellularNic.rlc.am rlcPduDelayUl:mean -nan
scalar SingleCell.eNB.cellularNic.rlc.am rlcPduDelayDl:mean -nan
scalar SingleCell.eNB.cellularNic.rlc.am rlcThroughputUl:simu5g_rateavg -nan
scalar SingleCell.eNB.cellularNic.rlc.am rlcThroughputDl:simu5g_rateavg -nan
scalar SingleCell.eNB.cellularNic.rlc.am rlcDelayUl:mean -nan
scalar SingleCell.eNB.cellularNic.rlc.am rlcDelayDl:mean -nan
scalar SingleCell.eNB.cellularNic.rlc.am rlcPduPacketLossUl:mean -nan
scalar SingleCell.eNB.cellularNic.rlc.am rlcPduPacketLossDl:mean -nan
scalar SingleCell.eNB.cellularNic.rlc.am rlcPacketLossUl:mean -nan
scalar SingleCell.eNB.cellularNic.rlc.am rlcPacketLossDl:mean -nan
scalar SingleCell.eNB.cellularNic.rlc.am rlcCellPacketLossUl:mean -nan
scalar SingleCell.eNB.cellularNic.rlc.am rlcCellPacketLossDl:mean -nan
scalar SingleCell.eNB.cellularNic.mac avgServedBlocksUl:mean 0.8478
scalar SingleCell.eNB.cellularNic.mac avgServedBlocksDl:mean 0.81810000000000005
scalar SingleCell.eNB.cellularNic.mac harqTxAttemptsUl:mean -nan
scalar SingleCell.eNB.cellularNic.mac harqTxAttemptsDl:mean -nan
scalar SingleCell.eNB.cellularNic.mac harqErrorRate_4th_Ul:mean -nan
scalar SingleCell.eNB.cellularNic.mac harqErrorRate_4th_Dl:mean -nan
scalar SingleCell.eNB.cellularNic.mac harqErrorRate_3rd_Ul:mean -nan
scalar SingleCell.eNB.cellularNic.mac harqErrorRate_3rd_Dl:mean -nan
scalar SingleCell.eNB.cellularNic.mac harqErrorRate_2nd_Ul:mean -nan
scalar SingleCell.eNB.cellularNic.mac harqErrorRate_2nd_Dl:mean -nan
scalar SingleCell.eNB.cellularNic.mac harqErrorRate_1st_Ul:mean -nan
scalar SingleCell.eNB.cellularNic.mac harqErrorRate_1st_Dl:mean -nan
scalar SingleCell.eNB.cellularNic.mac harqErrorRateUl:mean -nan
scalar SingleCell.eNB.cellularNic.mac harqErrorRateDl:mean -nan
scalar SingleCell.eNB.cellularNic.mac macCellPacketLossUl:mean 0
scalar SingleCell.eNB.cellularNic.mac macCellPacketLossDl:mean 0
scalar SingleCell.eNB.cellularNic.mac macPacketLossUl:mean -nan
scalar SingleCell.eNB.cellularNic.mac macPacketLossDl:mean -nan
scalar SingleCell.eNB.cellularNic.mac macThroughputUl:simu5g_rateavg -nan
scalar SingleCell.eNB.cellularNic.mac macThroughputDl:simu5g_rateavg -nan
scalar SingleCell.eNB.cellularNic.mac macDelayUl:mean -nan
scalar SingleCell.eNB.cellularNic.mac macDelayDl:mean -nan
scalar SingleCell.eNB.cellularNic.mac macCellThroughputUl:simu5g_rateavg 122773.47302521483
scalar SingleCell.eNB.cellularNic.mac macCellThroughputDl:simu5g_rateavg 122785.49369659068
scalar SingleCell.eNB.cellularNic.mac sentPacketToLowerLayer:count 66845
scalar SingleCell.eNB.cellularNic.mac sentPacketToLowerLayer:sum(packetBytes) 1244909
scalar SingleCell.eNB.cellularNic.mac sentPacketToUpperLayer:count 33308
scalar SingleCell.eNB.cellularNic.mac sentPacketToUpperLayer:sum(packetBytes) 1183719
scalar SingleCell.eNB.cellularNic.mac receivedPacketFromLowerLayer:count 133234
scalar SingleCell.eNB.cellularNic.mac receivedPacketFromLowerLayer:sum(packetBytes) 1317901
scalar SingleCell.eNB.cellularNic.mac receivedPacketFromUpperLayer:count 32720
scalar SingleCell.eNB.cellularNic.mac receivedPacketFromUpperLayer:sum(packetBytes) 2290400
scalar SingleCell.eNB.cellularNic.mac macBufferOverFlowD2D:mean -nan
scalar SingleCell.eNB.cellularNic.mac macBufferOverFlowUl:mean -nan
scalar SingleCell.eNB.cellularNic.mac macBufferOverFlowDl:mean -nan
scalar SingleCell.eNB.cellularNic.channelModel[0] measuredSinrUl:mean -nan
scalar SingleCell.eNB.cellularNic.channelModel[0] measuredSinrDl:mean -nan
scalar SingleCell.eNB.cellularNic.channelModel[0] rcvdSinrD2D:mean -nan
scalar SingleCell.eNB.cellularNic.channelModel[0] rcvdSinrUl:mean -nan
scalar SingleCell.eNB.cellularNic.channelModel[0] rcvdSinrDl:mean -nan
scalar SingleCell.eNB.cellularNic packetDropInterfaceDown:count 0
scalar SingleCell.eNB.cellularNic packetDropInterfaceDown:sum(packetBytes) 0
scalar SingleCell.eNB.cellularNic packetDropNoCarrier:count 0
scalar SingleCell.eNB.cellularNic packetDropNoCarrier:sum(packetBytes) 0
scalar SingleCell.eNB.pppIf.queue queueLength:last 0
scalar SingleCell.eNB.pppIf.queue queueLength:max 4
scalar SingleCell.eNB.pppIf.queue queueLength:timeavg 2.8944359999999279e-05
scalar SingleCell.eNB.pppIf.queue queueBitLength:last 0
scalar SingleCell.eNB.pppIf.queue queueBitLength:max 3328
scalar SingleCell.eNB.pppIf.queue queueBitLength:timeavg 0.024081707519998663
scalar SingleCell.eNB.pppIf.queue outgoingPackets:count 16427
scalar SingleCell.eNB.pppIf.queue outgoingPacketLengths:sum 13667264
scalar SingleCell.eNB.pppIf.queue incomingPackets:count 16427
scalar SingleCell.eNB.pppIf.queue incomingPacketLengths:sum 13667264
scalar SingleCell.eNB.pppIf.queue droppedPacketsQueueOverflow:count 0
scalar SingleCell.eNB.pppIf.queue droppedPacketLengthsQueueOverflow:sum 0
scalar SingleCell.eNB.pppIf.ppp transmissionState:timeavg 7.2931439999985553e-05
scalar SingleCell.eNB.pppIf.ppp rxPkOk:count 16360
scalar SingleCell.eNB.pppIf.ppp rxPkOk:sum(packetBytes) 1815960
scalar SingleCell.eNB.pppIf.ppp txPk:count 16427
scalar SingleCell.eNB.pppIf.ppp txPk:sum(packetBytes) 1823397
scalar SingleCell.eNB.pppIf.ppp rcvdPkFromHl:count 16427
scalar SingleCell.eNB.pppIf.ppp rcvdPkFromHl:sum(packetBytes) 1708408
scalar SingleCell.eNB.pppIf.ppp passedUpPk:count 16360
scalar SingleCell.eNB.pppIf.ppp passedUpPk:sum(packetBytes) 1701440
scalar SingleCell.eNB.pppIf.ppp packetDropIncorrectlyReceived:count 0
scalar SingleCell.eNB.pppIf.ppp packetDropIncorrectlyReceived:sum(packetBytes) 0
scalar SingleCell.eNB.pppIf.ppp packetDropInterfaceDown:count 0
scalar SingleCell.eNB.pppIf.ppp packetDropInterfaceDown:sum(packetBytes) 0
scalar SingleCell.eNB.pppIf packetDropInterfaceDown:count 0
scalar SingleCell.eNB.pppIf packetDropInterfaceDown:sum(packetBytes) 0
scalar SingleCell.eNB.pppIf packetDropNoCarrier:count 0
scalar SingleCell.eNB.pppIf packetDropNoCarrier:sum(packetBytes) 0
scalar SingleCell.eNB.pppMEHostIf.queue queueLength:last 0
scalar SingleCell.eNB.pppMEHostIf.queue queueLength:max 0
scalar SingleCell.eNB.pppMEHostIf.queue queueLength:timeavg 0
scalar SingleCell.eNB.pppMEHostIf.queue queueBitLength:last 0
scalar SingleCell.eNB.pppMEHostIf.queue queueBitLength:max 0
scalar SingleCell.eNB.pppMEHostIf.queue queueBitLength:timeavg 0
scalar SingleCell.eNB.pppMEHostIf.queue outgoingPackets:count 0
scalar SingleCell.eNB.pppMEHostIf.queue outgoingPacketLengths:sum 0
scalar SingleCell.eNB.pppMEHostIf.queue incomingPackets:count 0
scalar SingleCell.eNB.pppMEHostIf.queue incomingPacketLengths:sum 0
scalar SingleCell.eNB.pppMEHostIf.queue droppedPacketsQueueOverflow:count 0
scalar SingleCell.eNB.pppMEHostIf.queue droppedPacketLengthsQueueOverflow:sum 0
scalar SingleCell.eNB.pppMEHostIf.ppp transmissionState:timeavg 0
scalar SingleCell.eNB.pppMEHostIf.ppp rxPkOk:count 0
scalar SingleCell.eNB.pppMEHostIf.ppp rxPkOk:sum(packetBytes) 0
scalar SingleCell.eNB.pppMEHostIf.ppp txPk:count 0
scalar SingleCell.eNB.pppMEHostIf.ppp txPk:sum(packetBytes) 0
scalar SingleCell.eNB.pppMEHostIf.ppp rcvdPkFromHl:count 0
scalar SingleCell.eNB.pppMEHostIf.ppp rcvdPkFromHl:sum(packetBytes) 0
scalar SingleCell.eNB.pppMEHostIf.ppp passedUpPk:count 0
scalar SingleCell.eNB.pppMEHostIf.ppp passedUpPk:sum(packetBytes) 0
scalar SingleCell.eNB.pppMEHostIf.ppp packetDropIncorrectlyReceived:count 0
scalar SingleCell.eNB.pppMEHostIf.ppp packetDropIncorrectlyReceived:sum(packetBytes) 0
scalar SingleCell.eNB.pppMEHostIf.ppp packetDropInterfaceDown:count 0
scalar SingleCell.eNB.pppMEHostIf.ppp packetDropInterfaceDown:sum(packetBytes) 0
scalar SingleCell.eNB.pppMEHostIf packetDropInterfaceDown:count 0
scalar SingleCell.eNB.pppMEHostIf packetDropInterfaceDown:sum(packetBytes) 0
scalar SingleCell.eNB.pppMEHostIf packetDropNoCarrier:count 0
scalar SingleCell.eNB.pppMEHostIf packetDropNoCarrier:sum(packetBytes) 0
scalar SingleCell.eNB.ipv4.ip packetDropAddressResolutionFailed:count 0
scalar SingleCell.eNB.ipv4.ip packetDropAddressResolutionFailed:sum(packetBytes) 0
scalar SingleCell.eNB.ipv4.ip packetDropHopLimitReached:count 0
scalar SingleCell.eNB.ipv4.ip packetDropHopLimitReached:sum(packetBytes) 0
scalar SingleCell.eNB.ipv4.ip packetDropForwardingDisabled:count 0
scalar SingleCell.eNB.ipv4.ip packetDropForwardingDisabled:sum(packetBytes) 0
scalar SingleCell.eNB.ipv4.ip packetDropNoInterfaceFound:count 0
scalar SingleCell.eNB.ipv4.ip packetDropNoInterfaceFound:sum(packetBytes) 0
scalar SingleCell.eNB.ipv4.ip packetDropNoRouteFound:count 0
scalar SingleCell.eNB.ipv4.ip packetDropNoRouteFound:sum(packetBytes) 0
scalar SingleCell.eNB.ipv4.ip packetDropUndefined:count 0
scalar SingleCell.eNB.ipv4.ip packetDropUndefined:sum(packetBytes) 0
scalar SingleCell.eNB.ipv4.arp arpResolutionFailed:count 0
scalar SingleCell.eNB.ipv4.arp arpResolutionCompleted:count 0
scalar SingleCell.eNB.ipv4.arp arpResolutionInitiated:count 0
scalar SingleCell.eNB.ipv4.arp arpReplySent:count 0
scalar SingleCell.eNB.ipv4.arp arpReplySent:sum(packetBytes) 0
scalar SingleCell.eNB.ipv4.arp arpRequestSent:count 0
scalar SingleCell.eNB.ipv4.arp arpRequestSent:sum(packetBytes) 0
scalar SingleCell.eNB.udp packetReceived:count 16360
scalar SingleCell.eNB.udp packetReceived:sum(packetBytes) 1374240
scalar SingleCell.eNB.udp packetSent:count 16427
scalar SingleCell.eNB.udp packetSent:sum(packetBytes) 1379868
scalar SingleCell.eNB.udp passedUpPk:count 16360
scalar SingleCell.eNB.udp droppedPkWrongPort:count 0
scalar SingleCell.eNB.udp droppedPkBadChecksum:count 0
scalar SingleCell.ue[0].lo[0].lo rcvdPkFromHl:count 0
scalar SingleCell.ue[0].lo[0].lo rcvdPkFromHl:sum(packetBytes) 0
scalar SingleCell.ue[0].lo[0].lo passedUpPk:count 0
scalar SingleCell.ue[0].lo[0].lo passedUpPk:sum(packetBytes) 0
scalar SingleCell.ue[0].lo[0] packetDropInterfaceDown:count 0
scalar SingleCell.ue[0].lo[0] packetDropInterfaceDown:sum(packetBytes) 0
scalar SingleCell.ue[0].lo[0] packetDropNoCarrier:count 0
scalar SingleCell.ue[0].lo[0] packetDropNoCarrier:sum(packetBytes) 0
scalar SingleCell.ue[0].cellularNic.pdcp sentPacketToLowerLayer:count 747
scalar SingleCell.ue[0].cellularNic.pdcp sentPacketToLowerLayer:sum(packetBytes) 51543
scalar SingleCell.ue[0].cellularNic.pdcp sentPacketToUpperLayer:count 489
scalar SingleCell.ue[0].cellularNic.pdcp sentPacketToUpperLayer:sum(packetBytes) 33252
scalar SingleCell.ue[0].cellularNic.pdcp receivedPacketFromLowerLayer:count 489
scalar SingleCell.ue[0].cellularNic.pdcp receivedPacketFromLowerLayer:sum(packetBytes) 33741
scalar SingleCell.ue[0].cellularNic.pdcp receivedPacketFromUpperLayer:count 747
scalar SingleCell.ue[0].cellularNic.pdcp receivedPacketFromUpperLayer:sum(packetBytes) 50796
scalar SingleCell.ue[0].cellularNic.rlc.tm rlcPacketLossUl:mean -nan
scalar SingleCell.ue[0].cellularNic.rlc.tm rlcPacketLossUl:sum 0
scalar SingleCell.ue[0].cellularNic.rlc.tm rlcPacketLossDl:mean -nan
scalar SingleCell.ue[0].cellularNic.rlc.tm rlcPacketLossDl:sum 0
scalar SingleCell.ue[0].cellularNic.rlc.tm sentPacketToLowerLayer:count 0
scalar SingleCell.ue[0].cellularNic.rlc.tm sentPacketToLowerLayer:sum(packetBytes) 0
scalar SingleCell.ue[0].cellularNic.rlc.tm sentPacketToUpperLayer:count 0
scalar SingleCell.ue[0].cellularNic.rlc.tm sentPacketToUpperLayer:sum(packetBytes) 0
scalar SingleCell.ue[0].cellularNic.rlc.tm receivedPacketFromLowerLayer:count 0
scalar SingleCell.ue[0].cellularNic.rlc.tm receivedPacketFromLowerLayer:sum(packetBytes) 0
scalar SingleCell.ue[0].cellularNic.rlc.tm receivedPacketFromUpperLayer:count 0
scalar SingleCell.ue[0].cellularNic.rlc.tm receivedPacketFromUpperLayer:sum(packetBytes) 0
scalar SingleCell.ue[0].cellularNic.rlc.um rlcCellThroughputUl:simu5g_rateavg -nan
scalar SingleCell.ue[0].cellularNic.rlc.um rlcCellThroughputDl:simu5g_rateavg -nan
scalar SingleCell.ue[0].cellularNic.rlc.um rlcPduThroughputUl:simu5g_rateavg 0
scalar SingleCell.ue[0].cellularNic.rlc.um rlcPduThroughputDl:simu5g_rateavg 0
scalar SingleCell.ue[0].cellularNic.rlc.um rlcPduDelayUl:mean 0.0040000000000000027
scalar SingleCell.ue[0].cellularNic.rlc.um rlcPduDelayDl:mean 0.0040000000000000027
scalar SingleCell.ue[0].cellularNic.rlc.um rlcThroughputUl:simu5g_rateavg 2825.2553645304124
scalar SingleCell.ue[0].cellularNic.rlc.um rlcThroughputDl:simu5g_rateavg 2205.1799434138179
scalar SingleCell.ue[0].cellularNic.rlc.um rlcDelayUl:mean 0.008907049885426923
scalar SingleCell.ue[0].cellularNic.rlc.um rlcDelayDl:mean 0.0045919350575725926
scalar SingleCell.ue[0].cellularNic.rlc.um sentPacketToLowerLayer:count 747
scalar SingleCell.ue[0].cellularNic.rlc.um sentPacketToLowerLayer:sum(packetBytes) 53037
scalar SingleCell.ue[0].cellularNic.rlc.um sentPacketToUpperLayer:count 489
scalar SingleCell.ue[0].cellularNic.rlc.um sentPacketToUpperLayer:sum(packetBytes) 33741
scalar SingleCell.ue[0].cellularNic.rlc.um receivedPacketFromLowerLayer:count 489
scalar SingleCell.ue[0].cellularNic.rlc.um receivedPacketFromLowerLayer:sum(packetBytes) 34719
scalar SingleCell.ue[0].cellularNic.rlc.um receivedPacketFromUpperLayer:count 747
scalar SingleCell.ue[0].cellularNic.rlc.um receivedPacketFromUpperLayer:sum(packetBytes) 51543
scalar SingleCell.ue[0].cellularNic.rlc.am rlcPacketLossTotal:mean -nan
scalar SingleCell.ue[0].cellularNic.rlc.am rlcCellThroughputUl:simu5g_rateavg -nan
scalar SingleCell.ue[0].cellularNic.rlc.am rlcCellThroughputDl:simu5g_rateavg -nan
scalar SingleCell.ue[0].cellularNic.rlc.am rlcPduThroughputUl:simu5g_rateavg -nan
scalar SingleCell.ue[0].cellularNic.rlc.am rlcPduThroughputDl:simu5g_rateavg -nan
scalar SingleCell.ue[0].cellularNic.rlc.am rlcPduDelayUl:mean -nan
scalar SingleCell.ue[0].cellularNic.rlc.am rlcPduDelayDl:mean -nan
scalar SingleCell.ue[0].cellularNic.rlc.am rlcThroughputUl:simu5g_rateavg -nan
scalar SingleCell.ue[0].cellularNic.rlc.am rlcThroughputDl:simu5g_rateavg -nan
scalar SingleCell.ue[0].cellularNic.rlc.am rlcDelayUl:mean -nan
scalar SingleCell.ue[0].cellularNic.rlc.am rlcDelayDl:mean -nan
scalar SingleCell.ue[0].cellularNic.rlc.am rlcPduPacketLossUl:mean -nan
scalar SingleCell.ue[0].cellularNic.rlc.am rlcPduPacketLossDl:mean -nan
scalar SingleCell.ue[0].cellularNic.rlc.am rlcPacketLossUl:mean -nan
scalar SingleCell.ue[0].cellularNic.rlc.am rlcPacketLossDl:mean -nan
scalar SingleCell.ue[0].cellularNic.rlc.am rlcCellPacketLossUl:mean -nan
scalar SingleCell.ue[0].cellularNic.rlc.am rlcCellPacketLossDl:mean -nan
scalar SingleCell.ue[0].cellularNic.mac harqTxAttemptsUl:mean 1
scalar SingleCell.ue[0].cellularNic.mac harqTxAttemptsDl:mean 1
scalar SingleCell.ue[0].cellularNic.mac harqErrorRate_4th_Ul:mean -nan
scalar SingleCell.ue[0].cellularNic.mac harqErrorRate_4th_Dl:mean -nan
scalar SingleCell.ue[0].cellularNic.mac harqErrorRate_3rd_Ul:mean -nan
scalar SingleCell.ue[0].cellularNic.mac harqErrorRate_3rd_Dl:mean -nan
scalar SingleCell.ue[0].cellularNic.mac harqErrorRate_2nd_Ul:mean -nan
scalar SingleCell.ue[0].cellularNic.mac harqErrorRate_2nd_Dl:mean -nan
scalar SingleCell.ue[0].cellularNic.mac harqErrorRate_1st_Ul:mean 0
scalar SingleCell.ue[0].cellularNic.mac harqErrorRate_1st_Dl:mean 0
scalar SingleCell.ue[0].cellularNic.mac harqErrorRateUl:mean 0
scalar SingleCell.ue[0].cellularNic.mac harqErrorRateDl:mean 0
scalar SingleCell.ue[0].cellularNic.mac macCellPacketLossUl:mean -nan
scalar SingleCell.ue[0].cellularNic.mac macCellPacketLossDl:mean -nan
scalar SingleCell.ue[0].cellularNic.mac macPacketLossUl:mean 0
scalar SingleCell.ue[0].cellularNic.mac macPacketLossDl:mean 0
scalar SingleCell.ue[0].cellularNic.mac macThroughputUl:simu5g_rateavg 2989.0492231791318
scalar SingleCell.ue[0].cellularNic.mac macThroughputDl:simu5g_rateavg 2333.0164618725889
scalar SingleCell.ue[0].cellularNic.mac macDelayUl:mean 0.0040000000000000027
scalar SingleCell.ue[0].cellularNic.mac macDelayDl:mean 0.0040000000000000027
scalar SingleCell.ue[0].cellularNic.mac macCellThroughputUl:simu5g_rateavg -nan
scalar SingleCell.ue[0].cellularNic.mac macCellThroughputDl:simu5g_rateavg -nan
scalar SingleCell.ue[0].cellularNic.mac sentPacketToLowerLayer:count 1996
scalar SingleCell.ue[0].cellularNic.mac sentPacketToLowerLayer:sum(packetBytes) 55780
scalar SingleCell.ue[0].cellularNic.mac sentPacketToUpperLayer:count 1236
scalar SingleCell.ue[0].cellularNic.mac sentPacketToUpperLayer:sum(packetBytes) 35466
scalar SingleCell.ue[0].cellularNic.mac receivedPacketFromLowerLayer:count 2743
scalar SingleCell.ue[0].cellularNic.mac receivedPacketFromLowerLayer:sum(packetBytes) 37951
scalar SingleCell.ue[0].cellularNic.mac receivedPacketFromUpperLayer:count 1494
scalar SingleCell.ue[0].cellularNic.mac receivedPacketFromUpperLayer:sum(packetBytes) 104580
scalar SingleCell.ue[0].cellularNic.mac macBufferOverFlowD2D:mean -nan
scalar SingleCell.ue[0].cellularNic.mac macBufferOverFlowUl:mean -nan
scalar SingleCell.ue[0].cellularNic.mac macBufferOverFlowDl:mean -nan
scalar SingleCell.ue[0].cellularNic.phy distance:mean -nan
scalar SingleCell.ue[0].cellularNic.phy averageCqiUl:mean 14
scalar SingleCell.ue[0].cellularNic.phy averageCqiUl:count 747
scalar SingleCell.ue[0].cellularNic.phy averageCqiDl:mean 15
scalar SingleCell.ue[0].cellularNic.phy averageCqiDl:count 489
scalar SingleCell.ue[0].cellularNic.channelModel[0] measuredSinrUl:mean 44.246976017615005
scalar SingleCell.ue[0].cellularNic.channelModel[0] measuredSinrDl:mean 63.832697989448064
scalar SingleCell.ue[0].cellularNic.channelModel[0] rcvdSinrD2D:mean -nan
scalar SingleCell.ue[0].cellularNic.channelModel[0] rcvdSinrUl:mean 45.231800745554416
scalar SingleCell.ue[0].cellularNic.channelModel[0] rcvdSinrDl:mean 67.249147841333979
scalar SingleCell.ue[0].cellularNic packetDropInterfaceDown:count 0
scalar SingleCell.ue[0].cellularNic packetDropInterfaceDown:sum(packetBytes) 0
scalar SingleCell.ue[0].cellularNic packetDropNoCarrier:count 0
scalar SingleCell.ue[0].cellularNic packetDropNoCarrier:sum(packetBytes) 0
scalar SingleCell.ue[0].encap pauseSent:count 0
scalar SingleCell.ue[0].encap pauseSent:sum 0
scalar SingleCell.ue[0].encap decapPk:count 0
scalar SingleCell.ue[0].encap decapPk:sum(packetBytes) 0
scalar SingleCell.ue[0].encap encapPk:count 0
scalar SingleCell.ue[0].encap encapPk:sum(packetBytes) 0
scalar SingleCell.ue[0].ipv4.ip packetDropAddressResolutionFailed:count 0
scalar SingleCell.ue[0].ipv4.ip packetDropAddressResolutionFailed:sum(packetBytes) 0
scalar SingleCell.ue[0].ipv4.ip packetDropHopLimitReached:count 0
scalar SingleCell.ue[0].ipv4.ip packetDropHopLimitReached:sum(packetBytes) 0
scalar SingleCell.ue[0].ipv4.ip packetDropForwardingDisabled:count 0
scalar SingleCell.ue[0].ipv4.ip packetDropForwardingDisabled:sum(packetBytes) 0
scalar SingleCell.ue[0].ipv4.ip packetDropNoInterfaceFound:count 0
scalar SingleCell.ue[0].ipv4.ip packetDropNoInterfaceFound:sum(packetBytes) 0
scalar SingleCell.ue[0].ipv4.ip packetDropNoRouteFound:count 0
scalar SingleCell.ue[0].ipv4.ip packetDropNoRouteFound:sum(packetBytes) 0
scalar SingleCell.ue[0].ipv4.ip packetDropUndefined:count 0
scalar SingleCell.ue[0].ipv4.ip packetDropUndefined:sum(packetBytes) 0
scalar SingleCell.ue[0].ipv4.arp arpResolutionFailed:count 0
scalar SingleCell.ue[0].ipv4.arp arpResolutionCompleted:count 0
scalar SingleCell.ue[0].ipv4.arp arpResolutionInitiated:count 0
scalar SingleCell.ue[0].ipv4.arp arpReplySent:count 0
scalar SingleCell.ue[0].ipv4.arp arpReplySent:sum(packetBytes) 0
scalar SingleCell.ue[0].ipv4.arp arpRequestSent:count 0
scalar SingleCell.ue[0].ipv4.arp arpRequestSent:sum(packetBytes) 0
scalar SingleCell.ue[0].udp packetReceived:count 489
scalar SingleCell.ue[0].udp packetReceived:sum(packetBytes) 23472
scalar SingleCell.ue[0].udp packetSent:count 747
scalar SingleCell.ue[0].udp packetSent:sum(packetBytes) 35856
scalar SingleCell.ue[0].udp passedUpPk:count 489
scalar SingleCell.ue[0].udp droppedPkWrongPort:count 0
scalar SingleCell.ue[0].udp droppedPkBadChecksum:count 0
scalar SingleCell.ue[0].app[0] voipReceivedThroughput:simu5g_rateavg 1278.3651845877189
scalar SingleCell.ue[0].app[0] voipPlayoutLoss:mean 0
scalar SingleCell.ue[0].app[0] voipJitter:mean -nan
scalar SingleCell.ue[0].app[0] voipTaildropLoss:mean 0
scalar SingleCell.ue[0].app[0] voipMos:mean 4.4092858240000004
scalar SingleCell.ue[0].app[0] voipFrameDelay:mean 0.0045922938575726066
scalar SingleCell.ue[0].app[0] voipFrameLoss:mean 0
scalar SingleCell.ue[0].app[0] voipPlayoutDelay:mean 0
scalar SingleCell.ue[0].app[1] voipGeneratedThroughput:simu5g_rateavg 1645.6086589972067
scalar SingleCell.ue[1].lo[0].lo rcvdPkFromHl:count 0
scalar SingleCell.ue[1].lo[0].lo rcvdPkFromHl:sum(packetBytes) 0
scalar SingleCell.ue[1].lo[0].lo passedUpPk:count 0
scalar SingleCell.ue[1].lo[0].lo passedUpPk:sum(packetBytes) 0
scalar SingleCell.ue[1].lo[0] packetDropInterfaceDown:count 0
scalar SingleCell.ue[1].lo[0] packetDropInterfaceDown:sum(packetBytes) 0
scalar SingleCell.ue[1].lo[0] packetDropNoCarrier:count 0
scalar SingleCell.ue[1].lo[0] packetDropNoCarrier:sum(packetBytes) 0
scalar SingleCell.ue[1].cellularNic.pdcp sentPacketToLowerLayer:count 839
scalar SingleCell.ue[1].cellularNic.pdcp sentPacketToLowerLayer:sum(packetBytes) 57891
scalar SingleCell.ue[1].cellularNic.pdcp sentPacketToUpperLayer:count 493
scalar SingleCell.ue[1].cellularNic.pdcp sentPacketToUpperLayer:sum(packetBytes) 33524
scalar SingleCell.ue[1].cellularNic.pdcp receivedPacketFromLowerLayer:count 493
scalar SingleCell.ue[1].cellularNic.pdcp receivedPacketFromLowerLayer:sum(packetBytes) 34017
scalar SingleCell.ue[1].cellularNic.pdcp receivedPacketFromUpperLayer:count 839
scalar SingleCell.ue[1].cellularNic.pdcp receivedPacketFromUpperLayer:sum(packetBytes) 57052
scalar SingleCell.ue[1].cellularNic.rlc.tm rlcPacketLossUl:mean -nan
scalar SingleCell.ue[1].cellularNic.rlc.tm rlcPacketLossUl:sum 0
scalar SingleCell.ue[1].cellularNic.rlc.tm rlcPacketLossDl:mean -nan
scalar SingleCell.ue[1].cellularNic.rlc.tm rlcPacketLossDl:sum 0
scalar SingleCell.ue[1].cellularNic.rlc.tm sentPacketToLowerLayer:count 0
scalar SingleCell.ue[1].cellularNic.rlc.tm sentPacketToLowerLayer:sum(packetBytes) 0
scalar SingleCell.ue[1].cellularNic.rlc.tm sentPacketToUpperLayer:count 0
scalar SingleCell.ue[1].cellularNic.rlc.tm sentPacketToUpperLayer:sum(packetBytes) 0
scalar SingleCell.ue[1].cellularNic.rlc.tm receivedPacketFromLowerLayer:count 0
scalar SingleCell.ue[1].cellularNic.rlc.tm receivedPacketFromLowerLayer:sum(packetBytes) 0
scalar SingleCell.ue[1].cellularNic.rlc.tm receivedPacketFromUpperLayer:count 0
scalar SingleCell.ue[1].cellularNic.rlc.tm receivedPacketFromUpperLayer:sum(packetBytes) 0
scalar SingleCell.ue[1].cellularNic.rlc.um rlcCellThroughputUl:simu5g_rateavg -nan
scalar SingleCell.ue[1].cellularNic.rlc.um rlcCellThroughputDl:simu5g_rateavg -nan
scalar SingleCell.ue[1].cellularNic.rlc.um rlcPduThroughputUl:simu5g_rateavg 0
scalar SingleCell.ue[1].cellularNic.rlc.um rlcPduThroughputDl:simu5g_rateavg 0
scalar SingleCell.ue[1].cellularNic.rlc.um rlcPduDelayUl:mean 0.0040000000000000027
scalar SingleCell.ue[1].cellularNic.rlc.um rlcPduDelayDl:mean 0.0040000000000000027
scalar SingleCell.ue[1].cellularNic.rlc.um rlcThroughputUl:simu5g_rateavg 2602.6525253247546
scalar SingleCell.ue[1].cellularNic.rlc.um rlcThroughputDl:simu5g_rateavg 759.76983400891788
scalar SingleCell.ue[1].cellularNic.rlc.um rlcDelayUl:mean 0.0083707810830083457
scalar SingleCell.ue[1].cellularNic.rlc.um rlcDelayDl:mean 0.0046413741115923094
scalar SingleCell.ue[1].cellularNic.rlc.um sentPacketToLowerLayer:count 839
scalar SingleCell.ue[1].cellularNic.rlc.um sentPacketToLowerLayer:sum(packetBytes) 59569
scalar SingleCell.ue[1].cellularNic.rlc.um sentPacketToUpperLayer:count 493
scalar SingleCell.ue[1].cellularNic.rlc.um sentPacketToUpperLayer:sum(packetBytes) 34017
scalar SingleCell.ue[1].cellularNic.rlc.um receivedPacketFromLowerLayer:count 493
scalar SingleCell.ue[1].cellularNic.rlc.um receivedPacketFromLowerLayer:sum(packetBytes) 35003
scalar SingleCell.ue[1].cellularNic.rlc.um receivedPacketFromUpperLayer:count 839
scalar SingleCell.ue[1].cellularNic.rlc.um receivedPacketFromUpperLayer:sum(packetBytes) 57891
scalar SingleCell.ue[1].cellularNic.rlc.am rlcPacketLossTotal:mean -nan
scalar SingleCell.ue[1].cellularNic.rlc.am rlcCellThroughputUl:simu5g_rateavg -nan
scalar SingleCell.ue[1].cellularNic.rlc.am rlcCellThroughputDl:simu5g_rateavg -nan
scalar SingleCell.ue[1].cellularNic.rlc.am rlcPduThroughputUl:simu5g_rateavg -nan
scalar SingleCell.ue[1].cellularNic.rlc.am rlcPduThroughputDl:simu5g_rateavg -nan
scalar SingleCell.ue[1].cellularNic.rlc.am rlcPduDelayUl:mean -nan
scalar SingleCell.ue[1].cellularNic.rlc.am rlcPduDelayDl:mean -nan
scalar SingleCell.ue[1].cellularNic.rlc.am rlcThroughputUl:simu5g_rateavg -nan
scalar SingleCell.ue[1].cellularNic.rlc.am rlcThroughputDl:simu5g_rateavg -nan
scalar SingleCell.ue[1].cellularNic.rlc.am rlcDelayUl:mean -nan
scalar SingleCell.ue[1].cellularNic.rlc.am rlcDelayDl:mean -nan
scalar SingleCell.ue[1].cellularNic.rlc.am rlcPduPacketLossUl:mean -nan
scalar SingleCell.ue[1].cellularNic.rlc.am rlcPduPacketLossDl:mean -nan
scalar SingleCell.ue[1].cellularNic.rlc.am rlcPacketLossUl:mean -nan
scalar SingleCell.ue[1].cellularNic.rlc.am rlcPacketLossDl:mean -nan
scalar SingleCell.ue[1].cellularNic.rlc.am rlcCellPacketLossUl:mean -nan
scalar SingleCell.ue[1].cellularNic.rlc.am rlcCellPacketLossDl:mean -nan
scalar SingleCell.ue[1].cellularNic.mac harqTxAttemptsUl:mean 1
scalar SingleCell.ue[1].cellularNic.mac harqTxAttemptsDl:mean 1
scalar SingleCell.ue[1].cellularNic.mac harqErrorRate_4th_Ul:mean -nan
scalar SingleCell.ue[1].cellularNic.mac harqErrorRate_4th_Dl:mean -nan
scalar SingleCell.ue[1].cellularNic.mac harqErrorRate_3rd_Ul:mean -nan
scalar SingleCell.ue[1].cellularNic.mac harqErrorRate_3rd_Dl:mean -nan
scalar SingleCell.ue[1].cellularNic.mac harqErrorRate_2nd_Ul:mean -nan
scalar SingleCell.ue[1].cellularNic.mac harqErrorRate_2nd_Dl:mean -nan
scalar SingleCell.ue[1].cellularNic.mac harqErrorRate_1st_Ul:mean 0
scalar SingleCell.ue[1].cellularNic.mac harqErrorRate_1st_Dl:mean 0
scalar SingleCell.ue[1].cellularNic.mac harqErrorRateUl:mean 0
scalar SingleCell.ue[1].cellularNic.mac harqErrorRateDl:mean 0
scalar SingleCell.ue[1].cellularNic.mac macCellPacketLossUl:mean -nan
scalar SingleCell.ue[1].cellularNic.mac macCellPacketLossDl:mean -nan
scalar SingleCell.ue[1].cellularNic.mac macPacketLossUl:mean 0
scalar SingleCell.ue[1].cellularNic.mac macPacketLossDl:mean 0
scalar SingleCell.ue[1].cellularNic.mac macThroughputUl:simu5g_rateavg 2753.5453512211352
scalar SingleCell.ue[1].cellularNic.mac macThroughputDl:simu5g_rateavg 803.81446206740543
scalar SingleCell.ue[1].cellularNic.mac macDelayUl:mean 0.0040000000000000027
scalar SingleCell.ue[1].cellularNic.mac macDelayDl:mean 0.0040000000000000027
scalar SingleCell.ue[1].cellularNic.mac macCellThroughputUl:simu5g_rateavg -nan
scalar SingleCell.ue[1].cellularNic.mac macCellThroughputDl:simu5g_rateavg -nan
scalar SingleCell.ue[1].cellularNic.mac sentPacketToLowerLayer:count 2173
scalar SingleCell.ue[1].cellularNic.mac sentPacketToLowerLayer:sum(packetBytes) 62581
scalar SingleCell.ue[1].cellularNic.mac sentPacketToUpperLayer:count 1332
scalar SingleCell.ue[1].cellularNic.mac sentPacketToUpperLayer:sum(packetBytes) 35842
scalar SingleCell.ue[1].cellularNic.mac receivedPacketFromLowerLayer:count 3011
scalar SingleCell.ue[1].cellularNic.mac receivedPacketFromLowerLayer:sum(packetBytes) 38507
scalar SingleCell.ue[1].cellularNic.mac receivedPacketFromUpperLayer:count 1678
scalar SingleCell.ue[1].cellularNic.mac receivedPacketFromUpperLayer:sum(packetBytes) 117460
scalar SingleCell.ue[1].cellularNic.mac macBufferOverFlowD2D:mean -nan
scalar SingleCell.ue[1].cellularNic.mac macBufferOverFlowUl:mean -nan
scalar SingleCell.ue[1].cellularNic.mac macBufferOverFlowDl:mean -nan
scalar SingleCell.ue[1].cellularNic.phy distance:mean -nan
scalar SingleCell.ue[1].cellularNic.phy averageCqiUl:mean 15
scalar SingleCell.ue[1].cellularNic.phy averageCqiUl:count 839
scalar SingleCell.ue[1].cellularNic.phy averageCqiDl:mean 15
scalar SingleCell.ue[1].cellularNic.phy averageCqiDl:count 493
scalar SingleCell.ue[1].cellularNic.channelModel[0] measuredSinrUl:mean 44.382413613415949
scalar SingleCell.ue[1].cellularNic.channelModel[0] measuredSinrDl:mean 67.067679918722021
scalar SingleCell.ue[1].cellularNic.channelModel[0] rcvdSinrD2D:mean -nan
scalar SingleCell.ue[1].cellularNic.channelModel[0] rcvdSinrUl:mean 45.128840273444169
scalar SingleCell.ue[1].cellularNic.channelModel[0] rcvdSinrDl:mean 67.561844025945589
scalar SingleCell.ue[1].cellularNic packetDropInterfaceDown:count 0
scalar SingleCell.ue[1].cellularNic packetDropInterfaceDown:sum(packetBytes) 0
scalar SingleCell.ue[1].cellularNic packetDropNoCarrier:count 0
scalar SingleCell.ue[1].cellularNic packetDropNoCarrier:sum(packetBytes) 0
scalar SingleCell.ue[1].encap pauseSent:count 0
scalar SingleCell.ue[1].encap pauseSent:sum 0
scalar SingleCell.ue[1].encap decapPk:count 0
scalar SingleCell.ue[1].encap decapPk:sum(packetBytes) 0
scalar SingleCell.ue[1].encap encapPk:count 0
scalar SingleCell.ue[1].encap encapPk:sum(packetBytes) 0
scalar SingleCell.ue[1].ipv4.ip packetDropAddressResolutionFailed:count 0
scalar SingleCell.ue[1].ipv4.ip packetDropAddressResolutionFailed:sum(packetBytes) 0
scalar SingleCell.ue[1].ipv4.ip packetDropHopLimitReached:count 0
scalar SingleCell.ue[1].ipv4.ip packetDropHopLimitReached:sum(packetBytes) 0
scalar SingleCell.ue[1].ipv4.ip packetDropForwardingDisabled:count 0
scalar SingleCell.ue[1].ipv4.ip packetDropForwardingDisabled:sum(packetBytes) 0
scalar SingleCell.ue[1].ipv4.ip packetDropNoInterfaceFound:count 0
scalar SingleCell.ue[1].ipv4.ip packetDropNoInterfaceFound:sum(packetBytes) 0
scalar SingleCell.ue[1].ipv4.ip packetDropNoRouteFound:count 0
scalar SingleCell.ue[1].ipv4.ip packetDropNoRouteFound:sum(packetBytes) 0
scalar SingleCell.ue[1].ipv4.ip packetDropUndefined:count 0
scalar SingleCell.ue[1].ipv4.ip packetDropUndefined:sum(packetBytes) 0
scalar SingleCell.ue[1].ipv4.arp arpResolutionFailed:count 0
scalar SingleCell.ue[1].ipv4.arp arpResolutionCompleted:count 0
scalar SingleCell.ue[1].ipv4.arp arpResolutionInitiated:count 0
scalar SingleCell.ue[1].ipv4.arp arpReplySent:count 0
scalar SingleCell.ue[1].ipv4.arp arpReplySent:sum(packetBytes) 0
scalar SingleCell.ue[1].ipv4.arp arpRequestSent:count 0
scalar SingleCell.ue[1].ipv4.arp arpRequestSent:sum(packetBytes) 0
scalar SingleCell.ue[1].udp packetReceived:count 493
scalar SingleCell.ue[1].udp packetReceived:sum(packetBytes) 23664
scalar SingleCell.ue[1].udp packetSent:count 839
scalar SingleCell.ue[1].udp packetSent:sum(packetBytes) 40272
scalar SingleCell.ue[1].udp passedUpPk:count 493
scalar SingleCell.ue[1].udp droppedPkWrongPort:count 0
scalar SingleCell.ue[1].udp droppedPkBadChecksum:count 0
scalar SingleCell.ue[1].app[0] voipReceivedThroughput:simu5g_rateavg 440.44628058487962
scalar SingleCell.ue[1].app[0] voipPlayoutLoss:mean 0
scalar SingleCell.ue[1].app[0] voipJitter:mean -nan
scalar SingleCell.ue[1].app[0] voipTaildropLoss:mean 0
scalar SingleCell.ue[1].app[0] voipMos:mean 4.4092858240000004
scalar SingleCell.ue[1].app[0] voipFrameDelay:mean 0.0046417329115922808
scalar SingleCell.ue[1].app[0] voipFrameLoss:mean 0
scalar SingleCell.ue[1].app[0] voipPlayoutDelay:mean 0
scalar SingleCell.ue[1].app[1] voipGeneratedThroughput:simu5g_rateavg 1514.4780912431011
scalar SingleCell.ue[2].lo[0].lo rcvdPkFromHl:count 0
scalar SingleCell.ue[2].lo[0].lo rcvdPkFromHl:sum(packetBytes) 0
scalar SingleCell.ue[2].lo[0].lo passedUpPk:count 0
scalar SingleCell.ue[2].lo[0].lo passedUpPk:sum(packetBytes) 0
scalar SingleCell.ue[2].lo[0] packetDropInterfaceDown:count 0
scalar SingleCell.ue[2].lo[0] packetDropInterfaceDown:sum(packetBytes) 0
scalar SingleCell.ue[2].lo[0] packetDropNoCarrier:count 0
scalar SingleCell.ue[2].lo[0] packetDropNoCarrier:sum(packetBytes) 0
scalar SingleCell.ue[2].cellularNic.pdcp sentPacketToLowerLayer:count 850
scalar SingleCell.ue[2].cellularNic.pdcp sentPacketToLowerLayer:sum(packetBytes) 58650
scalar SingleCell.ue[2].cellularNic.pdcp sentPacketToUpperLayer:count 826
scalar SingleCell.ue[2].cellularNic.pdcp sentPacketToUpperLayer:sum(packetBytes) 56168
scalar SingleCell.ue[2].cellularNic.pdcp receivedPacketFromLowerLayer:count 826
scalar SingleCell.ue[2].cellularNic.pdcp receivedPacketFromLowerLayer:sum(packetBytes) 56994
scalar SingleCell.ue[2].cellularNic.pdcp receivedPacketFromUpperLayer:count 850
scalar SingleCell.ue[2].cellularNic.pdcp receivedPacketFromUpperLayer:sum(packetBytes) 57800
scalar SingleCell.ue[2].cellularNic.rlc.tm rlcPacketLossUl:mean -nan
scalar SingleCell.ue[2].cellularNic.rlc.tm rlcPacketLossUl:sum 0
scalar SingleCell.ue[2].cellularNic.rlc.tm rlcPacketLossDl:mean -nan
scalar SingleCell.ue[2].cellularNic.rlc.tm rlcPacketLossDl:sum 0
scalar SingleCell.ue[2].cellularNic.rlc.tm sentPacketToLowerLayer:count 0
scalar SingleCell.ue[2].cellularNic.rlc.tm sentPacketToLowerLayer:sum(packetBytes) 0
scalar SingleCell.ue[2].cellularNic.rlc.tm sentPacketToUpperLayer:count 0
scalar SingleCell.ue[2].cellularNic.rlc.tm sentPacketToUpperLayer:sum(packetBytes) 0
scalar SingleCell.ue[2].cellularNic.rlc.tm receivedPacketFromLowerLayer:count 0
scalar SingleCell.ue[2].cellularNic.rlc.tm receivedPacketFromLowerLayer:sum(packetBytes) 0
scalar SingleCell.ue[2].cellularNic.rlc.tm receivedPacketFromUpperLayer:count 0
scalar SingleCell.ue[2].cellularNic.rlc.tm receivedPacketFromUpperLayer:sum(packetBytes) 0
scalar SingleCell.ue[2].cellularNic.rlc.um rlcCellThroughputUl:simu5g_rateavg -nan
scalar SingleCell.ue[2].cellularNic.rlc.um rlcCellThroughputDl:simu5g_rateavg -nan
scalar SingleCell.ue[2].cellularNic.rlc.um rlcPduThroughputUl:simu5g_rateavg 0
scalar SingleCell.ue[2].cellularNic.rlc.um rlcPduThroughputDl:simu5g_rateavg 0
scalar SingleCell.ue[2].cellularNic.rlc.um rlcPduDelayUl:mean 0.0040000000000000027
scalar SingleCell.ue[2].cellularNic.rlc.um rlcPduDelayDl:mean 0.0040000000000000027
scalar SingleCell.ue[2].cellularNic.rlc.um rlcThroughputUl:simu5g_rateavg 3292.8629720792455
scalar SingleCell.ue[2].cellularNic.rlc.um rlcThroughputDl:simu5g_rateavg 2842.4799017830169
scalar SingleCell.ue[2].cellularNic.rlc.um rlcDelayUl:mean 0.0086894862336611214
scalar SingleCell.ue[2].cellularNic.rlc.um rlcDelayDl:mean 0.0045594275508184295
scalar SingleCell.ue[2].cellularNic.rlc.um sentPacketToLowerLayer:count 850
scalar SingleCell.ue[2].cellularNic.rlc.um sentPacketToLowerLayer:sum(packetBytes) 60350
scalar SingleCell.ue[2].cellularNic.rlc.um sentPacketToUpperLayer:count 826
scalar SingleCell.ue[2].cellularNic.rlc.um sentPacketToUpperLayer:sum(packetBytes) 56994
scalar SingleCell.ue[2].cellularNic.rlc.um receivedPacketFromLowerLayer:count 826
scalar SingleCell.ue[2].cellularNic.rlc.um receivedPacketFromLowerLayer:sum(packetBytes) 58646
scalar SingleCell.ue[2].cellularNic.rlc.um receivedPacketFromUpperLayer:count 850
scalar SingleCell.ue[2].cellularNic.rlc.um receivedPacketFromUpperLayer:sum(packetBytes) 58650
scalar SingleCell.ue[2].cellularNic.rlc.am rlcPacketLossTotal:mean -nan
scalar SingleCell.ue[2].cellularNic.rlc.am rlcCellThroughputUl:simu5g_rateavg -nan
scalar SingleCell.ue[2].cellularNic.rlc.am rlcCellThroughputDl:simu5g_rateavg -nan
scalar SingleCell.ue[2].cellularNic.rlc.am rlcPduThroughputUl:simu5g_rateavg -nan
scalar SingleCell.ue[2].cellularNic.rlc.am rlcPduThroughputDl:simu5g_rateavg -nan
scalar SingleCell.ue[2].cellularNic.rlc.am rlcPduDelayUl:mean -nan
scalar SingleCell.ue[2].cellularNic.rlc.am rlcPduDelayDl:mean -nan
scalar SingleCell.ue[2].cellularNic.rlc.am rlcThroughputUl:simu5g_rateavg -nan
scalar SingleCell.ue[2].cellularNic.rlc.am rlcThroughputDl:simu5g_rateavg -nan
scalar SingleCell.ue[2].cellularNic.rlc.am rlcDelayUl:mean -nan
scalar SingleCell.ue[2].cellularNic.rlc.am rlcDelayDl:mean -nan
scalar SingleCell.ue[2].cellularNic.rlc.am rlcPduPacketLossUl:mean -nan
scalar SingleCell.ue[2].cellularNic.rlc.am rlcPduPacketLossDl:mean -nan
scalar SingleCell.ue[2].cellularNic.rlc.am rlcPacketLossUl:mean -nan
scalar SingleCell.ue[2].cellularNic.rlc.am rlcPacketLossDl:mean -nan
scalar SingleCell.ue[2].cellularNic.rlc.am rlcCellPacketLossUl:mean -nan
scalar SingleCell.ue[2].cellularNic.rlc.am rlcCellPacketLossDl:mean -nan
scalar SingleCell.ue[2].cellularNic.mac harqTxAttemptsUl:mean 1
scalar SingleCell.ue[2].cellularNic.mac harqTxAttemptsDl:mean 1
scalar SingleCell.ue[2].cellularNic.mac harqErrorRate_4th_Ul:mean -nan
scalar SingleCell.ue[2].cellularNic.mac harqErrorRate_4th_Dl:mean -nan
scalar SingleCell.ue[2].cellularNic.mac harqErrorRate_3rd_Ul:mean -nan
scalar SingleCell.ue[2].cellularNic.mac harqErrorRate_3rd_Dl:mean -nan
scalar SingleCell.ue[2].cellularNic.mac harqErrorRate_2nd_Ul:mean -nan
scalar SingleCell.ue[2].cellularNic.mac harqErrorRate_2nd_Dl:mean -nan
scalar SingleCell.ue[2].cellularNic.mac harqErrorRate_1st_Ul:mean 0
scalar SingleCell.ue[2].cellularNic.mac harqErrorRate_1st_Dl:mean 0
scalar SingleCell.ue[2].cellularNic.mac harqErrorRateUl:mean 0
scalar SingleCell.ue[2].cellularNic.mac harqErrorRateDl:mean 0
scalar SingleCell.ue[2].cellularNic.mac macCellPacketLossUl:mean -nan
scalar SingleCell.ue[2].cellularNic.mac macCellPacketLossDl:mean -nan
scalar SingleCell.ue[2].cellularNic.mac macPacketLossUl:mean 0
scalar SingleCell.ue[2].cellularNic.mac macPacketLossDl:mean 0
scalar SingleCell.ue[2].cellularNic.mac macThroughputUl:simu5g_rateavg 3483.7590279201768
scalar SingleCell.ue[2].cellularNic.mac macThroughputDl:simu5g_rateavg 3007.2613453646459
scalar SingleCell.ue[2].cellularNic.mac macDelayUl:mean 0.0040000000000000027
scalar SingleCell.ue[2].cellularNic.mac macDelayDl:mean 0.0040000000000000027
scalar SingleCell.ue[2].cellularNic.mac macCellThroughputUl:simu5g_rateavg -nan
scalar SingleCell.ue[2].cellularNic.mac macCellThroughputDl:simu5g_rateavg -nan
scalar SingleCell.ue[2].cellularNic.mac sentPacketToLowerLayer:count 2527
scalar SingleCell.ue[2].cellularNic.mac sentPacketToLowerLayer:sum(packetBytes) 63727
scalar SingleCell.ue[2].cellularNic.mac sentPacketToUpperLayer:count 1676
scalar SingleCell.ue[2].cellularNic.mac sentPacketToUpperLayer:sum(packetBytes) 59496
scalar SingleCell.ue[2].cellularNic.mac receivedPacketFromLowerLayer:count 3377
scalar SingleCell.ue[2].cellularNic.mac receivedPacketFromLowerLayer:sum(packetBytes) 62849
scalar SingleCell.ue[2].cellularNic.mac receivedPacketFromUpperLayer:count 1700
scalar SingleCell.ue[2].cellularNic.mac receivedPacketFromUpperLayer:sum(packetBytes) 119000
scalar SingleCell.ue[2].cellularNic.mac macBufferOverFlowD2D:mean -nan
scalar SingleCell.ue[2].cellularNic.mac macBufferOverFlowUl:mean -nan
scalar SingleCell.ue[2].cellularNic.mac macBufferOverFlowDl:mean -nan
scalar SingleCell.ue[2].cellularNic.phy distance:mean -nan
scalar SingleCell.ue[2].cellularNic.phy averageCqiUl:mean 15
scalar SingleCell.ue[2].cellularNic.phy averageCqiUl:count 850
scalar SingleCell.ue[2].cellularNic.phy averageCqiDl:mean 15
scalar SingleCell.ue[2].cellularNic.phy averageCqiDl:count 826
scalar SingleCell.ue[2].cellularNic.channelModel[0] measuredSinrUl:mean 47.581943508178682
scalar SingleCell.ue[2].cellularNic.channelModel[0] measuredSinrDl:mean 56.114898853489073
scalar SingleCell.ue[2].cellularNic.channelModel[0] rcvdSinrD2D:mean -nan
scalar SingleCell.ue[2].cellularNic.channelModel[0] rcvdSinrUl:mean 44.790924843672151
scalar SingleCell.ue[2].cellularNic.channelModel[0] rcvdSinrDl:mean 55.61326062744665
scalar SingleCell.ue[2].cellularNic packetDropInterfaceDown:count 0
scalar SingleCell.ue[2].cellularNic packetDropInterfaceDown:sum(packetBytes) 0
scalar SingleCell.ue[2].cellularNic packetDropNoCarrier:count 0
scalar SingleCell.ue[2].cellularNic packetDropNoCarrier:sum(packetBytes) 0
scalar SingleCell.ue[2].encap pauseSent:count 0
scalar SingleCell.ue[2].encap pauseSent:sum 0
scalar SingleCell.ue[2].encap decapPk:count 0
scalar SingleCell.ue[2].encap decapPk:sum(packetBytes) 0
scalar SingleCell.ue[2].encap encapPk:count 0
scalar SingleCell.ue[2].encap encapPk:sum(packetBytes) 0
scalar SingleCell.ue[2].ipv4.ip packetDropAddressResolutionFailed:count 0
scalar SingleCell.ue[2].ipv4.ip packetDropAddressResolutionFailed:sum(packetBytes) 0
scalar SingleCell.ue[2].ipv4.ip packetDropHopLimitReached:count 0
scalar SingleCell.ue[2].ipv4.ip packetDropHopLimitReached:sum(packetBytes) 0
scalar SingleCell.ue[2].ipv4.ip packetDropForwardingDisabled:count 0
scalar SingleCell.ue[2].ipv4.ip packetDropForwardingDisabled:sum(packetBytes) 0
scalar SingleCell.ue[2].ipv4.ip packetDropNoInterfaceFound:count 0
scalar SingleCell.ue[2].ipv4.ip packetDropNoInterfaceFound:sum(packetBytes) 0
scalar SingleCell.ue[2].ipv4.ip packetDropNoRouteFound:count 0
scalar SingleCell.ue[2].ipv4.ip packetDropNoRouteFound:sum(packetBytes) 0
scalar SingleCell.ue[2].ipv4.ip packetDropUndefined:count 0
scalar SingleCell.ue[2].ipv4.ip packetDropUndefined:sum(packetBytes) 0
scalar SingleCell.ue[2].ipv4.arp arpResolutionFailed:count 0
scalar SingleCell.ue[2].ipv4.arp arpResolutionCompleted:count 0
scalar SingleCell.ue[2].ipv4.arp arpResolutionInitiated:count 0
scalar SingleCell.ue[2].ipv4.arp arpReplySent:count 0
scalar SingleCell.ue[2].ipv4.arp arpReplySent:sum(packetBytes) 0
scalar SingleCell.ue[2].ipv4.arp arpRequestSent:count 0
scalar SingleCell.ue[2].ipv4.arp arpRequestSent:sum(packetBytes) 0
scalar SingleCell.ue[2].udp packetReceived:count 826
scalar SingleCell.ue[2].udp packetReceived:sum(packetBytes) 39648
scalar SingleCell.ue[2].udp packetSent:count 850
scalar SingleCell.ue[2].udp packetSent:sum(packetBytes) 40800
scalar SingleCell.ue[2].udp passedUpPk:count 826
scalar SingleCell.ue[2].udp droppedPkWrongPort:count 0
scalar SingleCell.ue[2].udp droppedPkBadChecksum:count 0
[...]
scalar SingleCell.ue[24].cellularNic.phy servingCell:vector:min inf
scalar SingleCell.ue[24].cellularNic.phy servingCell:vector:max -inf
scalar SingleCell.ue[24].cellularNic.phy servingCell:vector:starttime nan
scalar SingleCell.ue[24].cellularNic.phy servingCell:vector:endtime nan
scalar SingleCell.ue[24].cellularNic.phy averageCqiDl:vector:count 0
scalar SingleCell.ue[24].cellularNic.phy averageCqiDl:vector:sum 0
scalar SingleCell.ue[24].cellularNic.phy averageCqiDl:vector:sumweights 0
scalar SingleCell.ue[24].cellularNic.phy averageCqiDl:vector:mean -nan
scalar SingleCell.ue[24].cellularNic.phy averageCqiDl:vector:stddev nan
scalar SingleCell.ue[24].cellularNic.phy averageCqiDl:vector:min inf
scalar SingleCell.ue[24].cellularNic.phy averageCqiDl:vector:max -inf
scalar SingleCell.ue[24].cellularNic.phy averageCqiDl:vector:starttime nan
scalar SingleCell.ue[24].cellularNic.phy averageCqiDl:vector:endtime nan
scalar SingleCell.ue[24].cellularNic.phy averageCqiUl:vector:count 0
scalar SingleCell.ue[24].cellularNic.phy averageCqiUl:vector:sum 0
scalar SingleCell.ue[24].cellularNic.phy averageCqiUl:vector:sumweights 0
scalar SingleCell.ue[24].cellularNic.phy averageCqiUl:vector:mean -nan
scalar SingleCell.ue[24].cellularNic.phy averageCqiUl:vector:stddev nan
scalar SingleCell.ue[24].cellularNic.phy averageCqiUl:vector:min inf
scalar SingleCell.ue[24].cellularNic.phy averageCqiUl:vector:max -inf
scalar SingleCell.ue[24].cellularNic.phy averageCqiUl:vector:starttime nan
scalar SingleCell.ue[24].cellularNic.phy averageCqiUl:vector:endtime nan
scalar SingleCell.ue[24].cellularNic.channelModel[0] rcvdSinrDl:vector:count 0
scalar SingleCell.ue[24].cellularNic.channelModel[0] rcvdSinrDl:vector:sum 0
scalar SingleCell.ue[24].cellularNic.channelModel[0] rcvdSinrDl:vector:sumweights 0
scalar SingleCell.ue[24].cellularNic.channelModel[0] rcvdSinrDl:vector:mean -nan
scalar SingleCell.ue[24].cellularNic.channelModel[0] rcvdSinrDl:vector:stddev nan
scalar SingleCell.ue[24].cellularNic.channelModel[0] rcvdSinrDl:vector:min inf
scalar SingleCell.ue[24].cellularNic.channelModel[0] rcvdSinrDl:vector:max -inf
scalar SingleCell.ue[24].cellularNic.channelModel[0] rcvdSinrDl:vector:starttime nan
scalar SingleCell.ue[24].cellularNic.channelModel[0] rcvdSinrDl:vector:endtime nan
scalar SingleCell.ue[24].cellularNic.channelModel[0] rcvdSinrUl:vector:count 0
scalar SingleCell.ue[24].cellularNic.channelModel[0] rcvdSinrUl:vector:sum 0
scalar SingleCell.ue[24].cellularNic.channelModel[0] rcvdSinrUl:vector:sumweights 0
scalar SingleCell.ue[24].cellularNic.channelModel[0] rcvdSinrUl:vector:mean -nan
scalar SingleCell.ue[24].cellularNic.channelModel[0] rcvdSinrUl:vector:stddev nan
scalar SingleCell.ue[24].cellularNic.channelModel[0] rcvdSinrUl:vector:min inf
scalar SingleCell.ue[24].cellularNic.channelModel[0] rcvdSinrUl:vector:max -inf
scalar SingleCell.ue[24].cellularNic.channelModel[0] rcvdSinrUl:vector:starttime nan
scalar SingleCell.ue[24].cellularNic.channelModel[0] rcvdSinrUl:vector:endtime nan
scalar SingleCell.ue[24].cellularNic.channelModel[0] rcvdSinrD2D:vector:count 0
scalar SingleCell.ue[24].cellularNic.channelModel[0] rcvdSinrD2D:vector:sum 0
scalar SingleCell.ue[24].cellularNic.channelModel[0] rcvdSinrD2D:vector:sumweights 0
scalar SingleCell.ue[24].cellularNic.channelModel[0] rcvdSinrD2D:vector:mean -nan
scalar SingleCell.ue[24].cellularNic.channelModel[0] rcvdSinrD2D:vector:stddev nan
scalar SingleCell.ue[24].cellularNic.channelModel[0] rcvdSinrD2D:vector:min inf
scalar SingleCell.ue[24].cellularNic.channelModel[0] rcvdSinrD2D:vector:max -inf
scalar SingleCell.ue[24].cellularNic.channelModel[0] rcvdSinrD2D:vector:starttime nan
scalar SingleCell.ue[24].cellularNic.channelModel[0] rcvdSinrD2D:vector:endtime nan
scalar SingleCell.ue[24].cellularNic.channelModel[0] measuredSinrDl:vector:count 0
scalar SingleCell.ue[24].cellularNic.channelModel[0] measuredSinrDl:vector:sum 0
scalar SingleCell.ue[24].cellularNic.channelModel[0] measuredSinrDl:vector:sumweights 0
scalar SingleCell.ue[24].cellularNic.channelModel[0] measuredSinrDl:vector:mean -nan
scalar SingleCell.ue[24].cellularNic.channelModel[0] measuredSinrDl:vector:stddev nan
scalar SingleCell.ue[24].cellularNic.channelModel[0] measuredSinrDl:vector:min inf
scalar SingleCell.ue[24].cellularNic.channelModel[0] measuredSinrDl:vector:max -inf
scalar SingleCell.ue[24].cellularNic.channelModel[0] measuredSinrDl:vector:starttime nan
scalar SingleCell.ue[24].cellularNic.channelModel[0] measuredSinrDl:vector:endtime nan
scalar SingleCell.ue[24].cellularNic.channelModel[0] measuredSinrUl:vector:count 0
scalar SingleCell.ue[24].cellularNic.channelModel[0] measuredSinrUl:vector:sum 0
scalar SingleCell.ue[24].cellularNic.channelModel[0] measuredSinrUl:vector:sumweights 0
scalar SingleCell.ue[24].cellularNic.channelModel[0] measuredSinrUl:vector:mean -nan
scalar SingleCell.ue[24].cellularNic.channelModel[0] measuredSinrUl:vector:stddev nan
scalar SingleCell.ue[24].cellularNic.channelModel[0] measuredSinrUl:vector:min inf
scalar SingleCell.ue[24].cellularNic.channelModel[0] measuredSinrUl:vector:max -inf
scalar SingleCell.ue[24].cellularNic.channelModel[0] measuredSinrUl:vector:starttime nan
scalar SingleCell.ue[24].cellularNic.channelModel[0] measuredSinrUl:vector:endtime nan
scalar SingleCell.ue[24].cellularNic packetDropInterfaceDown:vector(packetBytes):count 0
scalar SingleCell.ue[24].cellularNic packetDropInterfaceDown:vector(packetBytes):sum 0
scalar SingleCell.ue[24].cellularNic packetDropInterfaceDown:vector(packetBytes):sumweights 0
scalar SingleCell.ue[24].cellularNic packetDropInterfaceDown:vector(packetBytes):mean -nan
scalar SingleCell.ue[24].cellularNic packetDropInterfaceDown:vector(packetBytes):stddev nan
scalar SingleCell.ue[24].cellularNic packetDropInterfaceDown:vector(packetBytes):min inf
scalar SingleCell.ue[24].cellularNic packetDropInterfaceDown:vector(packetBytes):max -inf
scalar SingleCell.ue[24].cellularNic packetDropInterfaceDown:vector(packetBytes):starttime nan
scalar SingleCell.ue[24].cellularNic packetDropInterfaceDown:vector(packetBytes):endtime nan
scalar SingleCell.ue[24].cellularNic packetDropNoCarrier:vector(packetBytes):count 0
scalar SingleCell.ue[24].cellularNic packetDropNoCarrier:vector(packetBytes):sum 0
scalar SingleCell.ue[24].cellularNic packetDropNoCarrier:vector(packetBytes):sumweights 0
scalar SingleCell.ue[24].cellularNic packetDropNoCarrier:vector(packetBytes):mean -nan
scalar SingleCell.ue[24].cellularNic packetDropNoCarrier:vector(packetBytes):stddev nan
scalar SingleCell.ue[24].cellularNic packetDropNoCarrier:vector(packetBytes):min inf
scalar SingleCell.ue[24].cellularNic packetDropNoCarrier:vector(packetBytes):max -inf
scalar SingleCell.ue[24].cellularNic packetDropNoCarrier:vector(packetBytes):starttime nan
scalar SingleCell.ue[24].cellularNic packetDropNoCarrier:vector(packetBytes):endtime nan
scalar SingleCell.ue[24].encap encapPk:vector(packetBytes):count 0
scalar SingleCell.ue[24].encap encapPk:vector(packetBytes):sum 0
scalar SingleCell.ue[24].encap encapPk:vector(packetBytes):sumweights 0
scalar SingleCell.ue[24].encap encapPk:vector(packetBytes):mean -nan
scalar SingleCell.ue[24].encap encapPk:vector(packetBytes):stddev nan
scalar SingleCell.ue[24].encap encapPk:vector(packetBytes):min inf
scalar SingleCell.ue[24].encap encapPk:vector(packetBytes):max -inf
scalar SingleCell.ue[24].encap encapPk:vector(packetBytes):starttime nan
scalar SingleCell.ue[24].encap encapPk:vector(packetBytes):endtime nan
scalar SingleCell.ue[24].encap decapPk:vector(packetBytes):count 0
scalar SingleCell.ue[24].encap decapPk:vector(packetBytes):sum 0
scalar SingleCell.ue[24].encap decapPk:vector(packetBytes):sumweights 0
scalar SingleCell.ue[24].encap decapPk:vector(packetBytes):mean -nan
scalar SingleCell.ue[24].encap decapPk:vector(packetBytes):stddev nan
scalar SingleCell.ue[24].encap decapPk:vector(packetBytes):min inf
scalar SingleCell.ue[24].encap decapPk:vector(packetBytes):max -inf
scalar SingleCell.ue[24].encap decapPk:vector(packetBytes):starttime nan
scalar SingleCell.ue[24].encap decapPk:vector(packetBytes):endtime nan
scalar SingleCell.ue[24].encap pauseSent:vector:count 0
scalar SingleCell.ue[24].encap pauseSent:vector:sum 0
scalar SingleCell.ue[24].encap pauseSent:vector:sumweights 0
scalar SingleCell.ue[24].encap pauseSent:vector:mean -nan
scalar SingleCell.ue[24].encap pauseSent:vector:stddev nan
scalar SingleCell.ue[24].encap pauseSent:vector:min inf
scalar SingleCell.ue[24].encap pauseSent:vector:max -inf
scalar SingleCell.ue[24].encap pauseSent:vector:starttime nan
scalar SingleCell.ue[24].encap pauseSent:vector:endtime nan
scalar SingleCell.ue[24].ipv4.ip packetDropAddressResolutionFailed:vector(packetBytes):count 0
scalar SingleCell.ue[24].ipv4.ip packetDropAddressResolutionFailed:vector(packetBytes):sum 0
scalar SingleCell.ue[24].ipv4.ip packetDropAddressResolutionFailed:vector(packetBytes):sumweights 0
scalar SingleCell.ue[24].ipv4.ip packetDropAddressResolutionFailed:vector(packetBytes):mean -nan
scalar SingleCell.ue[24].ipv4.ip packetDropAddressResolutionFailed:vector(packetBytes):stddev nan
scalar SingleCell.ue[24].ipv4.ip packetDropAddressResolutionFailed:vector(packetBytes):min inf
scalar SingleCell.ue[24].ipv4.ip packetDropAddressResolutionFailed:vector(packetBytes):max -inf
scalar SingleCell.ue[24].ipv4.ip packetDropAddressResolutionFailed:vector(packetBytes):starttime nan
scalar SingleCell.ue[24].ipv4.ip packetDropAddressResolutionFailed:vector(packetBytes):endtime nan
scalar SingleCell.ue[24].ipv4.ip packetDropHopLimitReached:vector(packetBytes):count 0
scalar SingleCell.ue[24].ipv4.ip packetDropHopLimitReached:vector(packetBytes):sum 0
scalar SingleCell.ue[24].ipv4.ip packetDropHopLimitReached:vector(packetBytes):sumweights 0
scalar SingleCell.ue[24].ipv4.ip packetDropHopLimitReached:vector(packetBytes):mean -nan
scalar SingleCell.ue[24].ipv4.ip packetDropHopLimitReached:vector(packetBytes):stddev nan
scalar SingleCell.ue[24].ipv4.ip packetDropHopLimitReached:vector(packetBytes):min inf
scalar SingleCell.ue[24].ipv4.ip packetDropHopLimitReached:vector(packetBytes):max -inf
scalar SingleCell.ue[24].ipv4.ip packetDropHopLimitReached:vector(packetBytes):starttime nan
scalar SingleCell.ue[24].ipv4.ip packetDropHopLimitReached:vector(packetBytes):endtime nan
scalar SingleCell.ue[24].ipv4.ip packetDropForwardingDisabled:vector(packetBytes):count 0
scalar SingleCell.ue[24].ipv4.ip packetDropForwardingDisabled:vector(packetBytes):sum 0
scalar SingleCell.ue[24].ipv4.ip packetDropForwardingDisabled:vector(packetBytes):sumweights 0
scalar SingleCell.ue[24].ipv4.ip packetDropForwardingDisabled:vector(packetBytes):mean -nan
scalar SingleCell.ue[24].ipv4.ip packetDropForwardingDisabled:vector(packetBytes):stddev nan
scalar SingleCell.ue[24].ipv4.ip packetDropForwardingDisabled:vector(packetBytes):min inf
scalar SingleCell.ue[24].ipv4.ip packetDropForwardingDisabled:vector(packetBytes):max -inf
scalar SingleCell.ue[24].ipv4.ip packetDropForwardingDisabled:vector(packetBytes):starttime nan
scalar SingleCell.ue[24].ipv4.ip packetDropForwardingDisabled:vector(packetBytes):endtime nan
scalar SingleCell.ue[24].ipv4.ip packetDropNoInterfaceFound:vector(packetBytes):count 0
scalar SingleCell.ue[24].ipv4.ip packetDropNoInterfaceFound:vector(packetBytes):sum 0
scalar SingleCell.ue[24].ipv4.ip packetDropNoInterfaceFound:vector(packetBytes):sumweights 0
scalar SingleCell.ue[24].ipv4.ip packetDropNoInterfaceFound:vector(packetBytes):mean -nan
scalar SingleCell.ue[24].ipv4.ip packetDropNoInterfaceFound:vector(packetBytes):stddev nan
scalar SingleCell.ue[24].ipv4.ip packetDropNoInterfaceFound:vector(packetBytes):min inf
scalar SingleCell.ue[24].ipv4.ip packetDropNoInterfaceFound:vector(packetBytes):max -inf
scalar SingleCell.ue[24].ipv4.ip packetDropNoInterfaceFound:vector(packetBytes):starttime nan
scalar SingleCell.ue[24].ipv4.ip packetDropNoInterfaceFound:vector(packetBytes):endtime nan
scalar SingleCell.ue[24].ipv4.ip packetDropNoRouteFound:vector(packetBytes):count 0
scalar SingleCell.ue[24].ipv4.ip packetDropNoRouteFound:vector(packetBytes):sum 0
scalar SingleCell.ue[24].ipv4.ip packetDropNoRouteFound:vector(packetBytes):sumweights 0
scalar SingleCell.ue[24].ipv4.ip packetDropNoRouteFound:vector(packetBytes):mean -nan
scalar SingleCell.ue[24].ipv4.ip packetDropNoRouteFound:vector(packetBytes):stddev nan
scalar SingleCell.ue[24].ipv4.ip packetDropNoRouteFound:vector(packetBytes):min inf
scalar SingleCell.ue[24].ipv4.ip packetDropNoRouteFound:vector(packetBytes):max -inf
scalar SingleCell.ue[24].ipv4.ip packetDropNoRouteFound:vector(packetBytes):starttime nan
scalar SingleCell.ue[24].ipv4.ip packetDropNoRouteFound:vector(packetBytes):endtime nan
scalar SingleCell.ue[24].ipv4.ip packetDropUndefined:vector(packetBytes):count 0
scalar SingleCell.ue[24].ipv4.ip packetDropUndefined:vector(packetBytes):sum 0
scalar SingleCell.ue[24].ipv4.ip packetDropUndefined:vector(packetBytes):sumweights 0
scalar SingleCell.ue[24].ipv4.ip packetDropUndefined:vector(packetBytes):mean -nan
scalar SingleCell.ue[24].ipv4.ip packetDropUndefined:vector(packetBytes):stddev nan
scalar SingleCell.ue[24].ipv4.ip packetDropUndefined:vector(packetBytes):min inf
scalar SingleCell.ue[24].ipv4.ip packetDropUndefined:vector(packetBytes):max -inf
scalar SingleCell.ue[24].ipv4.ip packetDropUndefined:vector(packetBytes):starttime nan
scalar SingleCell.ue[24].ipv4.ip packetDropUndefined:vector(packetBytes):endtime nan
scalar SingleCell.ue[24].ipv4.arp arpRequestSent:vector(packetBytes):count 0
scalar SingleCell.ue[24].ipv4.arp arpRequestSent:vector(packetBytes):sum 0
scalar SingleCell.ue[24].ipv4.arp arpRequestSent:vector(packetBytes):sumweights 0
scalar SingleCell.ue[24].ipv4.arp arpRequestSent:vector(packetBytes):mean -nan
scalar SingleCell.ue[24].ipv4.arp arpRequestSent:vector(packetBytes):stddev nan
scalar SingleCell.ue[24].ipv4.arp arpRequestSent:vector(packetBytes):min inf
scalar SingleCell.ue[24].ipv4.arp arpRequestSent:vector(packetBytes):max -inf
scalar SingleCell.ue[24].ipv4.arp arpRequestSent:vector(packetBytes):starttime nan
scalar SingleCell.ue[24].ipv4.arp arpRequestSent:vector(packetBytes):endtime nan
scalar SingleCell.ue[24].ipv4.arp arpReplySent:vector(packetBytes):count 0
scalar SingleCell.ue[24].ipv4.arp arpReplySent:vector(packetBytes):sum 0
scalar SingleCell.ue[24].ipv4.arp arpReplySent:vector(packetBytes):sumweights 0
scalar SingleCell.ue[24].ipv4.arp arpReplySent:vector(packetBytes):mean -nan
scalar SingleCell.ue[24].ipv4.arp arpReplySent:vector(packetBytes):stddev nan
scalar SingleCell.ue[24].ipv4.arp arpReplySent:vector(packetBytes):min inf
scalar SingleCell.ue[24].ipv4.arp arpReplySent:vector(packetBytes):max -inf
scalar SingleCell.ue[24].ipv4.arp arpReplySent:vector(packetBytes):starttime nan
scalar SingleCell.ue[24].ipv4.arp arpReplySent:vector(packetBytes):endtime nan
scalar SingleCell.ue[24].udp packetSent:vector(packetBytes):count 0
scalar SingleCell.ue[24].udp packetSent:vector(packetBytes):sum 0
scalar SingleCell.ue[24].udp packetSent:vector(packetBytes):sumweights 0
scalar SingleCell.ue[24].udp packetSent:vector(packetBytes):mean -nan
scalar SingleCell.ue[24].udp packetSent:vector(packetBytes):stddev nan
scalar SingleCell.ue[24].udp packetSent:vector(packetBytes):min inf
scalar SingleCell.ue[24].udp packetSent:vector(packetBytes):max -inf
scalar SingleCell.ue[24].udp packetSent:vector(packetBytes):starttime nan
scalar SingleCell.ue[24].udp packetSent:vector(packetBytes):endtime nan
scalar SingleCell.ue[24].udp packetReceived:vector(packetBytes):count 0
scalar SingleCell.ue[24].udp packetReceived:vector(packetBytes):sum 0
scalar SingleCell.ue[24].udp packetReceived:vector(packetBytes):sumweights 0
scalar SingleCell.ue[24].udp packetReceived:vector(packetBytes):mean -nan
scalar SingleCell.ue[24].udp packetReceived:vector(packetBytes):stddev nan
scalar SingleCell.ue[24].udp packetReceived:vector(packetBytes):min inf
scalar SingleCell.ue[24].udp packetReceived:vector(packetBytes):max -inf
scalar SingleCell.ue[24].udp packetReceived:vector(packetBytes):starttime nan
scalar SingleCell.ue[24].udp packetReceived:vector(packetBytes):endtime nan
scalar SingleCell.ue[24].udp passedUpPk:vector(count):count 0
scalar SingleCell.ue[24].udp passedUpPk:vector(count):sum 0
scalar SingleCell.ue[24].udp passedUpPk:vector(count):sumweights 0
scalar SingleCell.ue[24].udp passedUpPk:vector(count):mean -nan
scalar SingleCell.ue[24].udp passedUpPk:vector(count):stddev nan
scalar SingleCell.ue[24].udp passedUpPk:vector(count):min inf
scalar SingleCell.ue[24].udp passedUpPk:vector(count):max -inf
scalar SingleCell.ue[24].udp passedUpPk:vector(count):starttime nan
scalar SingleCell.ue[24].udp passedUpPk:vector(count):endtime nan
scalar SingleCell.ue[24].udp droppedPkWrongPort:vector(count):count 0
scalar SingleCell.ue[24].udp droppedPkWrongPort:vector(count):sum 0
scalar SingleCell.ue[24].udp droppedPkWrongPort:vector(count):sumweights 0
scalar SingleCell.ue[24].udp droppedPkWrongPort:vector(count):mean -nan
scalar SingleCell.ue[24].udp droppedPkWrongPort:vector(count):stddev nan
scalar SingleCell.ue[24].udp droppedPkWrongPort:vector(count):min inf
scalar SingleCell.ue[24].udp droppedPkWrongPort:vector(count):max -inf
scalar SingleCell.ue[24].udp droppedPkWrongPort:vector(count):starttime nan
scalar SingleCell.ue[24].udp droppedPkWrongPort:vector(count):endtime nan
scalar SingleCell.ue[24].udp droppedPkBadChecksum:vector(count):count 0
scalar SingleCell.ue[24].udp droppedPkBadChecksum:vector(count):sum 0
scalar SingleCell.ue[24].udp droppedPkBadChecksum:vector(count):sumweights 0
scalar SingleCell.ue[24].udp droppedPkBadChecksum:vector(count):mean -nan
scalar SingleCell.ue[24].udp droppedPkBadChecksum:vector(count):stddev nan
scalar SingleCell.ue[24].udp droppedPkBadChecksum:vector(count):min inf
scalar SingleCell.ue[24].udp droppedPkBadChecksum:vector(count):max -inf
scalar SingleCell.ue[24].udp droppedPkBadChecksum:vector(count):starttime nan
scalar SingleCell.ue[24].udp droppedPkBadChecksum:vector(count):endtime nan
scalar SingleCell.ue[24].app[0] voipFrameDelay:vector:count 0
scalar SingleCell.ue[24].app[0] voipFrameDelay:vector:sum 0
scalar SingleCell.ue[24].app[0] voipFrameDelay:vector:sumweights 0
scalar SingleCell.ue[24].app[0] voipFrameDelay:vector:mean -nan
scalar SingleCell.ue[24].app[0] voipFrameDelay:vector:stddev nan
scalar SingleCell.ue[24].app[0] voipFrameDelay:vector:min inf
scalar SingleCell.ue[24].app[0] voipFrameDelay:vector:max -inf
scalar SingleCell.ue[24].app[0] voipFrameDelay:vector:starttime nan
scalar SingleCell.ue[24].app[0] voipFrameDelay:vector:endtime nan
scalar SingleCell.ue[24].app[0] voipReceivedThroughput:vector:count 0
scalar SingleCell.ue[24].app[0] voipReceivedThroughput:vector:sum 0
scalar SingleCell.ue[24].app[0] voipReceivedThroughput:vector:sumweights 0
scalar SingleCell.ue[24].app[0] voipReceivedThroughput:vector:mean -nan
scalar SingleCell.ue[24].app[0] voipReceivedThroughput:vector:stddev nan
scalar SingleCell.ue[24].app[0] voipReceivedThroughput:vector:min inf
scalar SingleCell.ue[24].app[0] voipReceivedThroughput:vector:max -inf
scalar SingleCell.ue[24].app[0] voipReceivedThroughput:vector:starttime nan
scalar SingleCell.ue[24].app[0] voipReceivedThroughput:vector:endtime nan
scalar SingleCell.ue[24].app[1] voipGeneratedThroughput:vector:count 0
scalar SingleCell.ue[24].app[1] voipGeneratedThroughput:vector:sum 0
scalar SingleCell.ue[24].app[1] voipGeneratedThroughput:vector:sumweights 0
scalar SingleCell.ue[24].app[1] voipGeneratedThroughput:vector:mean -nan
scalar SingleCell.ue[24].app[1] voipGeneratedThroughput:vector:stddev nan
scalar SingleCell.ue[24].app[1] voipGeneratedThroughput:vector:min inf
scalar SingleCell.ue[24].app[1] voipGeneratedThroughput:vector:max -inf
scalar SingleCell.ue[24].app[1] voipGeneratedThroughput:vector:starttime nan
scalar SingleCell.ue[24].app[1] voipGeneratedThroughput:vector:endtime nan

