version 3
run SchedulersTest-0-20260712-20:59:24-252378
attr configname SchedulersTest
attr datetime 20260712-20:59:24
attr datetimef 20260712-205924
attr experiment SchedulersTest
attr inifile omnetpp.ini
attr iterationvars "$sched=\"PF\", $numUEs=50, $pktSize=30B"
attr iterationvarsd sched=PF/numUEs=50/pktSize=30B
attr iterationvarsf sched=PF,numUEs=50,pktSize=30B-
attr measurement "$sched=\"PF\", $numUEs=50, $pktSize=30B"
attr network simu5g.simulations.lte.networks.SingleCell
attr processid 252378
attr repetition 0
attr replication #0
attr resultdir results
attr runnumber 0
attr seedset 0
itervar numUEs 50
itervar pktSize 30B
itervar sched "\"PF\""
config **.param-recording false
config image-path /home/andras/projects/Simu5G-fork/simu5g-fork/images
config output-scalar-file results/omnetpp.ini-SchedulersTest-#0.sca
config output-scalar-precision 17
config output-vector-file results/omnetpp.ini-SchedulersTest-#0.vec
config output-vector-precision 17
config record-eventlog false
config sim-time-limit 10s
config network simu5g.simulations.lte.networks.SingleCell
config sim-time-limit 10s
config repeat 1
config output-scalar-file "results/SchedulersTest/$sched=\"PF\", $numUEs=50, $pktSize=30B-0.sca"
config output-vector-file "results/SchedulersTest/$sched=\"PF\", $numUEs=50, $pktSize=30B-0.vec"
config seed-set 0
config **.ue[*].servingNodeId 1
config *.eNB.mobility.initFromDisplayString false
config *.eNB.mobility.initialX 0m
config *.eNB.mobility.initialY 0m
config **.schedulingDisciplineDl "\"PF\""
config **.numUe 50
config *.server.app[*].packetSize 30B
config *.server.numApps 50
config *.ue[*].mobility.initialMovementHeading "uniform(0deg, 360deg)"
config *.ue[*].mobility.constraintAreaMaxX 1000m
config *.ue[*].mobility.constraintAreaMaxY 1000m
config *.ue[*].mobility.constraintAreaMinX 0m
config *.ue[*].mobility.constraintAreaMinY 0m
config *.ue[*].mobility.initFromDisplayString false
config *.ue[*].mobility.initialX uniform(0m,300m)
config *.ue[*].mobility.initialY uniform(0m,300m)
config *.ue[*].mobility.initialZ 0m
config *.ue[*].mobility.speed 1mps
config *.ue[*].mobility.typename LinearMobility
config *.ue[*].app[*].typename VoipReceiver
config *.ue[*].app[0].localPort 3000
config *.server.app[*].destAddress "\"ue[\"+string(ancestorIndex(0))+\"]\""
config *.server.app[*].destPort 3000
config *.server.app[*].localPort 3088+ancestorIndex(0)
config *.server.app[*].typename VoipSender
config *.server.app[*].startTime uniform(0s,0.02s)
config sim-time-limit 20s
config output-scalar-file results/SchedulersTest/0.sca
config output-vector-file results/SchedulersTest/0.vec
config seed-set 0
config **.vector-recording false
config **.mobility.constraintAreaMinZ 0m
config **.mobility.constraintAreaMaxZ 0m
config **.mobility.initFromDisplayString true
config **.numBands 6
config **.ueTxPower 26dBm
config **.eNodeBTxPower 40dBm
config *.configurator.config "xmldoc(\"./demo.xml\")"

scalar SingleCell.server.lo[0].lo rcvdPkFromHl:count 0
scalar SingleCell.server.lo[0].lo rcvdPkFromHl:sum(packetBytes) 0
scalar SingleCell.server.lo[0].lo passedUpPk:count 0
scalar SingleCell.server.lo[0].lo passedUpPk:sum(packetBytes) 0
scalar SingleCell.server.lo[0] packetDropInterfaceDown:count 0
scalar SingleCell.server.lo[0] packetDropInterfaceDown:sum(packetBytes) 0
scalar SingleCell.server.lo[0] packetDropNoCarrier:count 0
scalar SingleCell.server.lo[0] packetDropNoCarrier:sum(packetBytes) 0
scalar SingleCell.server.ppp[0].queue queueLength:last 0
scalar SingleCell.server.ppp[0].queue queueLength:max 0
scalar SingleCell.server.ppp[0].queue queueLength:timeavg 0
scalar SingleCell.server.ppp[0].queue queueBitLength:last 0
scalar SingleCell.server.ppp[0].queue queueBitLength:max 0
scalar SingleCell.server.ppp[0].queue queueBitLength:timeavg 0
scalar SingleCell.server.ppp[0].queue outgoingPackets:count 16139
scalar SingleCell.server.ppp[0].queue outgoingPacketLengths:sum 7488496
scalar SingleCell.server.ppp[0].queue incomingPackets:count 16139
scalar SingleCell.server.ppp[0].queue incomingPacketLengths:sum 7488496
scalar SingleCell.server.ppp[0].queue droppedPacketsQueueOverflow:count 0
scalar SingleCell.server.ppp[0].queue droppedPacketLengthsQueueOverflow:sum 0
scalar SingleCell.server.ppp[0].ppp transmissionState:timeavg 8.3922799999971691e-05
scalar SingleCell.server.ppp[0].ppp rxPkOk:count 16052
scalar SingleCell.server.ppp[0].ppp rxPkOk:sum(packetBytes) 1011276
scalar SingleCell.server.ppp[0].ppp txPk:count 16139
scalar SingleCell.server.ppp[0].ppp txPk:sum(packetBytes) 1049035
scalar SingleCell.server.ppp[0].ppp rcvdPkFromHl:count 16139
scalar SingleCell.server.ppp[0].ppp rcvdPkFromHl:sum(packetBytes) 936062
scalar SingleCell.server.ppp[0].ppp passedUpPk:count 16052
scalar SingleCell.server.ppp[0].ppp passedUpPk:sum(packetBytes) 898912
scalar SingleCell.server.ppp[0].ppp packetDropIncorrectlyReceived:count 0
scalar SingleCell.server.ppp[0].ppp packetDropIncorrectlyReceived:sum(packetBytes) 0
scalar SingleCell.server.ppp[0].ppp packetDropInterfaceDown:count 0
scalar SingleCell.server.ppp[0].ppp packetDropInterfaceDown:sum(packetBytes) 0
scalar SingleCell.server.ppp[0] packetDropInterfaceDown:count 0
scalar SingleCell.server.ppp[0] packetDropInterfaceDown:sum(packetBytes) 0
scalar SingleCell.server.ppp[0] packetDropNoCarrier:count 0
scalar SingleCell.server.ppp[0] packetDropNoCarrier:sum(packetBytes) 0
scalar SingleCell.server.ipv4.ip packetDropAddressResolutionFailed:count 0
scalar SingleCell.server.ipv4.ip packetDropAddressResolutionFailed:sum(packetBytes) 0
scalar SingleCell.server.ipv4.ip packetDropHopLimitReached:count 0
scalar SingleCell.server.ipv4.ip packetDropHopLimitReached:sum(packetBytes) 0
scalar SingleCell.server.ipv4.ip packetDropForwardingDisabled:count 0
scalar SingleCell.server.ipv4.ip packetDropForwardingDisabled:sum(packetBytes) 0
scalar SingleCell.server.ipv4.ip packetDropNoInterfaceFound:count 0
scalar SingleCell.server.ipv4.ip packetDropNoInterfaceFound:sum(packetBytes) 0
scalar SingleCell.server.ipv4.ip packetDropNoRouteFound:count 0
scalar SingleCell.server.ipv4.ip packetDropNoRouteFound:sum(packetBytes) 0
scalar SingleCell.server.ipv4.ip packetDropUndefined:count 0
scalar SingleCell.server.ipv4.ip packetDropUndefined:sum(packetBytes) 0
scalar SingleCell.server.ipv4.arp arpResolutionFailed:count 0
scalar SingleCell.server.ipv4.arp arpResolutionCompleted:count 0
scalar SingleCell.server.ipv4.arp arpResolutionInitiated:count 0
scalar SingleCell.server.ipv4.arp arpReplySent:count 0
scalar SingleCell.server.ipv4.arp arpReplySent:sum(packetBytes) 0
scalar SingleCell.server.ipv4.arp arpRequestSent:count 0
scalar SingleCell.server.ipv4.arp arpRequestSent:sum(packetBytes) 0
scalar SingleCell.server.udp packetReceived:count 0
scalar SingleCell.server.udp packetReceived:sum(packetBytes) 0
scalar SingleCell.server.udp packetSent:count 16139
scalar SingleCell.server.udp packetSent:sum(packetBytes) 613282
scalar SingleCell.server.udp passedUpPk:count 0
scalar SingleCell.server.udp droppedPkWrongPort:count 0
scalar SingleCell.server.udp droppedPkBadChecksum:count 0
scalar SingleCell.server.app[0] voipGeneratedThroughput:simu5g_rateavg 959.87709897186357
scalar SingleCell.server.app[1] voipGeneratedThroughput:simu5g_rateavg 844.59384289853165
scalar SingleCell.server.app[2] voipGeneratedThroughput:simu5g_rateavg 1089.4358293200339
scalar SingleCell.server.app[3] voipGeneratedThroughput:simu5g_rateavg 1489.1014576856303
scalar SingleCell.server.app[4] voipGeneratedThroughput:simu5g_rateavg 824.70542807474214
scalar SingleCell.server.app[5] voipGeneratedThroughput:simu5g_rateavg 1377.504280729386
scalar SingleCell.server.app[6] voipGeneratedThroughput:simu5g_rateavg 706.32033910107316
scalar SingleCell.server.app[7] voipGeneratedThroughput:simu5g_rateavg 262.03115650760384
scalar SingleCell.server.app[8] voipGeneratedThroughput:simu5g_rateavg 1295.207562224422
scalar SingleCell.server.app[9] voipGeneratedThroughput:simu5g_rateavg 1310.2391379291789
scalar SingleCell.server.app[10] voipGeneratedThroughput:simu5g_rateavg 1006.2139668106856
scalar SingleCell.server.app[11] voipGeneratedThroughput:simu5g_rateavg 1188.544628657763
scalar SingleCell.server.app[12] voipGeneratedThroughput:simu5g_rateavg 456.22731404749919
scalar SingleCell.server.app[13] voipGeneratedThroughput:simu5g_rateavg 1037.5837286506198
scalar SingleCell.server.app[14] voipGeneratedThroughput:simu5g_rateavg 1052.7130439465761
scalar SingleCell.server.app[15] voipGeneratedThroughput:simu5g_rateavg 501.74225546452908
scalar SingleCell.server.app[16] voipGeneratedThroughput:simu5g_rateavg 859.90644435008926
scalar SingleCell.server.app[17] voipGeneratedThroughput:simu5g_rateavg 1051.6806794434603
scalar SingleCell.server.app[18] voipGeneratedThroughput:simu5g_rateavg 825.09675774538539
scalar SingleCell.server.app[19] voipGeneratedThroughput:simu5g_rateavg 1351.3146571366249
scalar SingleCell.server.app[20] voipGeneratedThroughput:simu5g_rateavg 656.14030609705128
scalar SingleCell.server.app[21] voipGeneratedThroughput:simu5g_rateavg 1041.0526242123033
scalar SingleCell.server.app[22] voipGeneratedThroughput:simu5g_rateavg 1049.4722026757568
scalar SingleCell.server.app[23] voipGeneratedThroughput:simu5g_rateavg 1398.4735754712603
scalar SingleCell.server.app[24] voipGeneratedThroughput:simu5g_rateavg 1074.4498667407183
scalar SingleCell.server.app[25] voipGeneratedThroughput:simu5g_rateavg 488.67547345614122
scalar SingleCell.server.app[26] voipGeneratedThroughput:simu5g_rateavg 979.32818968637434
scalar SingleCell.server.app[27] voipGeneratedThroughput:simu5g_rateavg 750.53649973201436
scalar SingleCell.server.app[28] voipGeneratedThroughput:simu5g_rateavg 1316.6290909111751
scalar SingleCell.server.app[29] voipGeneratedThroughput:simu5g_rateavg 1119.9078686886464
scalar SingleCell.server.app[30] voipGeneratedThroughput:simu5g_rateavg 1178.8250812087288
scalar SingleCell.server.app[31] voipGeneratedThroughput:simu5g_rateavg 1089.075687509039
scalar SingleCell.server.app[32] voipGeneratedThroughput:simu5g_rateavg 693.79396078526486
scalar SingleCell.server.app[33] voipGeneratedThroughput:simu5g_rateavg 796.11245981452669
scalar SingleCell.server.app[34] voipGeneratedThroughput:simu5g_rateavg 1134.3324037784905
scalar SingleCell.server.app[35] voipGeneratedThroughput:simu5g_rateavg 569.62833831687988
scalar SingleCell.server.app[36] voipGeneratedThroughput:simu5g_rateavg 956.7832347954768
scalar SingleCell.server.app[37] voipGeneratedThroughput:simu5g_rateavg 1335.8284241955162
scalar SingleCell.server.app[38] voipGeneratedThroughput:simu5g_rateavg 406.50298725273319
scalar SingleCell.server.app[39] voipGeneratedThroughput:simu5g_rateavg 734.63159812389222
scalar SingleCell.server.app[40] voipGeneratedThroughput:simu5g_rateavg 1152.3539978826675
scalar SingleCell.server.app[41] voipGeneratedThroughput:simu5g_rateavg 1084.1494372912587
scalar SingleCell.server.app[42] voipGeneratedThroughput:simu5g_rateavg 801.15364479274763
scalar SingleCell.server.app[43] voipGeneratedThroughput:simu5g_rateavg 242.4315610769722
scalar SingleCell.server.app[44] voipGeneratedThroughput:simu5g_rateavg 989.72120898129492
scalar SingleCell.server.app[45] voipGeneratedThroughput:simu5g_rateavg 1276.5901447796493
scalar SingleCell.server.app[46] voipGeneratedThroughput:simu5g_rateavg 1116.30072651452
scalar SingleCell.server.app[47] voipGeneratedThroughput:simu5g_rateavg 1346.518341676335
scalar SingleCell.server.app[48] voipGeneratedThroughput:simu5g_rateavg 1375.3506609500619
scalar SingleCell.server.app[49] voipGeneratedThroughput:simu5g_rateavg 725.79972581991217
scalar SingleCell.router.lo[0].lo rcvdPkFromHl:count 0
scalar SingleCell.router.lo[0].lo rcvdPkFromHl:sum(packetBytes) 0
scalar SingleCell.router.lo[0].lo passedUpPk:count 0
scalar SingleCell.router.lo[0].lo passedUpPk:sum(packetBytes) 0
scalar SingleCell.router.lo[0] packetDropInterfaceDown:count 0
scalar SingleCell.router.lo[0] packetDropInterfaceDown:sum(packetBytes) 0
scalar SingleCell.router.lo[0] packetDropNoCarrier:count 0
scalar SingleCell.router.lo[0] packetDropNoCarrier:sum(packetBytes) 0
scalar SingleCell.router.ppp[0].queue queueLength:last 0
scalar SingleCell.router.ppp[0].queue queueLength:max 0
scalar SingleCell.router.ppp[0].queue queueLength:timeavg 0
scalar SingleCell.router.ppp[0].queue queueBitLength:last 0
scalar SingleCell.router.ppp[0].queue queueBitLength:max 0
scalar SingleCell.router.ppp[0].queue queueBitLength:timeavg 0
scalar SingleCell.router.ppp[0].queue outgoingPackets:count 16052
scalar SingleCell.router.ppp[0].queue outgoingPacketLengths:sum 7191296
scalar SingleCell.router.ppp[0].queue incomingPackets:count 16052
scalar SingleCell.router.ppp[0].queue incomingPacketLengths:sum 7191296
scalar SingleCell.router.ppp[0].queue droppedPacketsQueueOverflow:count 0
scalar SingleCell.router.ppp[0].queue droppedPacketLengthsQueueOverflow:sum 0
scalar SingleCell.router.ppp[0].ppp transmissionState:timeavg 8.0902079999968705e-05
scalar SingleCell.router.ppp[0].ppp rxPkOk:count 16139
scalar SingleCell.router.ppp[0].ppp rxPkOk:sum(packetBytes) 1049035
scalar SingleCell.router.ppp[0].ppp txPk:count 16052
scalar SingleCell.router.ppp[0].ppp txPk:sum(packetBytes) 1011276
scalar SingleCell.router.ppp[0].ppp rcvdPkFromHl:count 16052
scalar SingleCell.router.ppp[0].ppp rcvdPkFromHl:sum(packetBytes) 898912
scalar SingleCell.router.ppp[0].ppp passedUpPk:count 16139
scalar SingleCell.router.ppp[0].ppp passedUpPk:sum(packetBytes) 936062
scalar SingleCell.router.ppp[0].ppp packetDropIncorrectlyReceived:count 0
scalar SingleCell.router.ppp[0].ppp packetDropIncorrectlyReceived:sum(packetBytes) 0
scalar SingleCell.router.ppp[0].ppp packetDropInterfaceDown:count 0
scalar SingleCell.router.ppp[0].ppp packetDropInterfaceDown:sum(packetBytes) 0
scalar SingleCell.router.ppp[0] packetDropInterfaceDown:count 0
scalar SingleCell.router.ppp[0] packetDropInterfaceDown:sum(packetBytes) 0
scalar SingleCell.router.ppp[0] packetDropNoCarrier:count 0
scalar SingleCell.router.ppp[0] packetDropNoCarrier:sum(packetBytes) 0
scalar SingleCell.router.ppp[1].queue queueLength:last 0
scalar SingleCell.router.ppp[1].queue queueLength:max 0
scalar SingleCell.router.ppp[1].queue queueLength:timeavg 0
scalar SingleCell.router.ppp[1].queue queueBitLength:last 0
scalar SingleCell.router.ppp[1].queue queueBitLength:max 0
scalar SingleCell.router.ppp[1].queue queueBitLength:timeavg 0
scalar SingleCell.router.ppp[1].queue outgoingPackets:count 16139
scalar SingleCell.router.ppp[1].queue outgoingPacketLengths:sum 7488496
scalar SingleCell.router.ppp[1].queue incomingPackets:count 16139
scalar SingleCell.router.ppp[1].queue incomingPacketLengths:sum 7488496
scalar SingleCell.router.ppp[1].queue droppedPacketsQueueOverflow:count 0
scalar SingleCell.router.ppp[1].queue droppedPacketLengthsQueueOverflow:sum 0
scalar SingleCell.router.ppp[1].ppp transmissionState:timeavg 8.3922799999971691e-05
scalar SingleCell.router.ppp[1].ppp rxPkOk:count 16052
scalar SingleCell.router.ppp[1].ppp rxPkOk:sum(packetBytes) 1011276
scalar SingleCell.router.ppp[1].ppp txPk:count 16139
scalar SingleCell.router.ppp[1].ppp txPk:sum(packetBytes) 1049035
scalar SingleCell.router.ppp[1].ppp rcvdPkFromHl:count 16139
scalar SingleCell.router.ppp[1].ppp rcvdPkFromHl:sum(packetBytes) 936062
scalar SingleCell.router.ppp[1].ppp passedUpPk:count 16052
scalar SingleCell.router.ppp[1].ppp passedUpPk:sum(packetBytes) 898912
scalar SingleCell.router.ppp[1].ppp packetDropIncorrectlyReceived:count 0
scalar SingleCell.router.ppp[1].ppp packetDropIncorrectlyReceived:sum(packetBytes) 0
scalar SingleCell.router.ppp[1].ppp packetDropInterfaceDown:count 0
scalar SingleCell.router.ppp[1].ppp packetDropInterfaceDown:sum(packetBytes) 0
scalar SingleCell.router.ppp[1] packetDropInterfaceDown:count 0
scalar SingleCell.router.ppp[1] packetDropInterfaceDown:sum(packetBytes) 0
scalar SingleCell.router.ppp[1] packetDropNoCarrier:count 0
scalar SingleCell.router.ppp[1] packetDropNoCarrier:sum(packetBytes) 0
scalar SingleCell.router.ipv4.ip packetDropAddressResolutionFailed:count 0
scalar SingleCell.router.ipv4.ip packetDropAddressResolutionFailed:sum(packetBytes) 0
scalar SingleCell.router.ipv4.ip packetDropHopLimitReached:count 0
scalar SingleCell.router.ipv4.ip packetDropHopLimitReached:sum(packetBytes) 0
scalar SingleCell.router.ipv4.ip packetDropForwardingDisabled:count 0
scalar SingleCell.router.ipv4.ip packetDropForwardingDisabled:sum(packetBytes) 0
scalar SingleCell.router.ipv4.ip packetDropNoInterfaceFound:count 0
scalar SingleCell.router.ipv4.ip packetDropNoInterfaceFound:sum(packetBytes) 0
scalar SingleCell.router.ipv4.ip packetDropNoRouteFound:count 0
scalar SingleCell.router.ipv4.ip packetDropNoRouteFound:sum(packetBytes) 0
scalar SingleCell.router.ipv4.ip packetDropUndefined:count 0
scalar SingleCell.router.ipv4.ip packetDropUndefined:sum(packetBytes) 0
scalar SingleCell.router.ipv4.arp arpResolutionFailed:count 0
scalar SingleCell.router.ipv4.arp arpResolutionCompleted:count 0
scalar SingleCell.router.ipv4.arp arpResolutionInitiated:count 0
scalar SingleCell.router.ipv4.arp arpReplySent:count 0
scalar SingleCell.router.ipv4.arp arpReplySent:sum(packetBytes) 0
scalar SingleCell.router.ipv4.arp arpRequestSent:count 0
scalar SingleCell.router.ipv4.arp arpRequestSent:sum(packetBytes) 0
scalar SingleCell.pgw.lo[0].lo rcvdPkFromHl:count 0
scalar SingleCell.pgw.lo[0].lo rcvdPkFromHl:sum(packetBytes) 0
scalar SingleCell.pgw.lo[0].lo passedUpPk:count 0
scalar SingleCell.pgw.lo[0].lo passedUpPk:sum(packetBytes) 0
scalar SingleCell.pgw.lo[0] packetDropInterfaceDown:count 0
scalar SingleCell.pgw.lo[0] packetDropInterfaceDown:sum(packetBytes) 0
scalar SingleCell.pgw.lo[0] packetDropNoCarrier:count 0
scalar SingleCell.pgw.lo[0] packetDropNoCarrier:sum(packetBytes) 0
scalar SingleCell.pgw.ppp[0].queue queueLength:last 0
scalar SingleCell.pgw.ppp[0].queue queueLength:max 0
scalar SingleCell.pgw.ppp[0].queue queueLength:timeavg 0
scalar SingleCell.pgw.ppp[0].queue queueBitLength:last 0
scalar SingleCell.pgw.ppp[0].queue queueBitLength:max 0
scalar SingleCell.pgw.ppp[0].queue queueBitLength:timeavg 0
scalar SingleCell.pgw.ppp[0].queue outgoingPackets:count 16139
scalar SingleCell.pgw.ppp[0].queue outgoingPacketLengths:sum 12136528
scalar SingleCell.pgw.ppp[0].queue incomingPackets:count 16139
scalar SingleCell.pgw.ppp[0].queue incomingPacketLengths:sum 12136528
scalar SingleCell.pgw.ppp[0].queue droppedPacketsQueueOverflow:count 0
scalar SingleCell.pgw.ppp[0].queue droppedPacketLengthsQueueOverflow:sum 0
scalar SingleCell.pgw.ppp[0].ppp transmissionState:timeavg 0.00013040312000001729
scalar SingleCell.pgw.ppp[0].ppp rxPkOk:count 16052
scalar SingleCell.pgw.ppp[0].ppp rxPkOk:sum(packetBytes) 1589148
scalar SingleCell.pgw.ppp[0].ppp txPk:count 16139
scalar SingleCell.pgw.ppp[0].ppp txPk:sum(packetBytes) 1630039
scalar SingleCell.pgw.ppp[0].ppp rcvdPkFromHl:count 16139
scalar SingleCell.pgw.ppp[0].ppp rcvdPkFromHl:sum(packetBytes) 1517066
scalar SingleCell.pgw.ppp[0].ppp passedUpPk:count 16052
scalar SingleCell.pgw.ppp[0].ppp passedUpPk:sum(packetBytes) 1476784
scalar SingleCell.pgw.ppp[0].ppp packetDropIncorrectlyReceived:count 0
scalar SingleCell.pgw.ppp[0].ppp packetDropIncorrectlyReceived:sum(packetBytes) 0
scalar SingleCell.pgw.ppp[0].ppp packetDropInterfaceDown:count 0
scalar SingleCell.pgw.ppp[0].ppp packetDropInterfaceDown:sum(packetBytes) 0
scalar SingleCell.pgw.ppp[0] packetDropInterfaceDown:count 0
scalar SingleCell.pgw.ppp[0] packetDropInterfaceDown:sum(packetBytes) 0
scalar SingleCell.pgw.ppp[0] packetDropNoCarrier:count 0
scalar SingleCell.pgw.ppp[0] packetDropNoCarrier:sum(packetBytes) 0
scalar SingleCell.pgw.ipv4.ip packetDropAddressResolutionFailed:count 0
scalar SingleCell.pgw.ipv4.ip packetDropAddressResolutionFailed:sum(packetBytes) 0
scalar SingleCell.pgw.ipv4.ip packetDropHopLimitReached:count 0
scalar SingleCell.pgw.ipv4.ip packetDropHopLimitReached:sum(packetBytes) 0
scalar SingleCell.pgw.ipv4.ip packetDropForwardingDisabled:count 0
scalar SingleCell.pgw.ipv4.ip packetDropForwardingDisabled:sum(packetBytes) 0
scalar SingleCell.pgw.ipv4.ip packetDropNoInterfaceFound:count 0
scalar SingleCell.pgw.ipv4.ip packetDropNoInterfaceFound:sum(packetBytes) 0
scalar SingleCell.pgw.ipv4.ip packetDropNoRouteFound:count 0
scalar SingleCell.pgw.ipv4.ip packetDropNoRouteFound:sum(packetBytes) 0
scalar SingleCell.pgw.ipv4.ip packetDropUndefined:count 0
scalar SingleCell.pgw.ipv4.ip packetDropUndefined:sum(packetBytes) 0
scalar SingleCell.pgw.ipv4.arp arpResolutionFailed:count 0
scalar SingleCell.pgw.ipv4.arp arpResolutionCompleted:count 0
scalar SingleCell.pgw.ipv4.arp arpResolutionInitiated:count 0
scalar SingleCell.pgw.ipv4.arp arpReplySent:count 0
scalar SingleCell.pgw.ipv4.arp arpReplySent:sum(packetBytes) 0
scalar SingleCell.pgw.ipv4.arp arpRequestSent:count 0
scalar SingleCell.pgw.ipv4.arp arpRequestSent:sum(packetBytes) 0
scalar SingleCell.pgw.udp packetReceived:count 16052
scalar SingleCell.pgw.udp packetReceived:sum(packetBytes) 1155744
scalar SingleCell.pgw.udp packetSent:count 16139
scalar SingleCell.pgw.udp packetSent:sum(packetBytes) 1194286
scalar SingleCell.pgw.udp passedUpPk:count 16052
scalar SingleCell.pgw.udp droppedPkWrongPort:count 0
scalar SingleCell.pgw.udp droppedPkBadChecksum:count 0
scalar SingleCell.pgw.dnPpp.queue queueLength:last 0
scalar SingleCell.pgw.dnPpp.queue queueLength:max 0
scalar SingleCell.pgw.dnPpp.queue queueLength:timeavg 0
scalar SingleCell.pgw.dnPpp.queue queueBitLength:last 0
scalar SingleCell.pgw.dnPpp.queue queueBitLength:max 0
scalar SingleCell.pgw.dnPpp.queue queueBitLength:timeavg 0
scalar SingleCell.pgw.dnPpp.queue outgoingPackets:count 16052
scalar SingleCell.pgw.dnPpp.queue outgoingPacketLengths:sum 7191296
scalar SingleCell.pgw.dnPpp.queue incomingPackets:count 16052
scalar SingleCell.pgw.dnPpp.queue incomingPacketLengths:sum 7191296
scalar SingleCell.pgw.dnPpp.queue droppedPacketsQueueOverflow:count 0
scalar SingleCell.pgw.dnPpp.queue droppedPacketLengthsQueueOverflow:sum 0
scalar SingleCell.pgw.dnPpp.ppp transmissionState:timeavg 8.0902079999968705e-05
scalar SingleCell.pgw.dnPpp.ppp rxPkOk:count 16139
scalar SingleCell.pgw.dnPpp.ppp rxPkOk:sum(packetBytes) 1049035
scalar SingleCell.pgw.dnPpp.ppp txPk:count 16052
scalar SingleCell.pgw.dnPpp.ppp txPk:sum(packetBytes) 1011276
scalar SingleCell.pgw.dnPpp.ppp rcvdPkFromHl:count 16052
scalar SingleCell.pgw.dnPpp.ppp rcvdPkFromHl:sum(packetBytes) 898912
scalar SingleCell.pgw.dnPpp.ppp passedUpPk:count 16139
scalar SingleCell.pgw.dnPpp.ppp passedUpPk:sum(packetBytes) 936062
scalar SingleCell.pgw.dnPpp.ppp packetDropIncorrectlyReceived:count 0
scalar SingleCell.pgw.dnPpp.ppp packetDropIncorrectlyReceived:sum(packetBytes) 0
scalar SingleCell.pgw.dnPpp.ppp packetDropInterfaceDown:count 0
scalar SingleCell.pgw.dnPpp.ppp packetDropInterfaceDown:sum(packetBytes) 0
scalar SingleCell.pgw.dnPpp packetDropInterfaceDown:count 0
scalar SingleCell.pgw.dnPpp packetDropInterfaceDown:sum(packetBytes) 0
scalar SingleCell.pgw.dnPpp packetDropNoCarrier:count 0
scalar SingleCell.pgw.dnPpp packetDropNoCarrier:sum(packetBytes) 0
scalar SingleCell.eNB.cellularNic.rlcMux rlcCellThroughputD2D:simu5g_rateavg -nan
scalar SingleCell.eNB.cellularNic.rlcMux rlcPduThroughputD2D:simu5g_rateavg -nan
scalar SingleCell.eNB.cellularNic.rlcMux rlcPduDelayD2D:mean -nan
scalar SingleCell.eNB.cellularNic.rlcMux rlcThroughputD2D:simu5g_rateavg -nan
scalar SingleCell.eNB.cellularNic.rlcMux rlcDelayD2D:mean -nan
scalar SingleCell.eNB.cellularNic.rlcMux rlcCellThroughputUl:simu5g_rateavg 190936.30111831843
scalar SingleCell.eNB.cellularNic.rlcMux rlcCellThroughputDl:simu5g_rateavg 190899.39674571212
scalar SingleCell.eNB.cellularNic.rlcMux rlcPduThroughputUl:simu5g_rateavg -nan
scalar SingleCell.eNB.cellularNic.rlcMux rlcPduThroughputDl:simu5g_rateavg -nan
scalar SingleCell.eNB.cellularNic.rlcMux rlcPduDelayUl:mean -nan
scalar SingleCell.eNB.cellularNic.rlcMux rlcPduDelayDl:mean -nan
scalar SingleCell.eNB.cellularNic.rlcMux rlcThroughputUl:simu5g_rateavg -nan
scalar SingleCell.eNB.cellularNic.rlcMux rlcThroughputDl:simu5g_rateavg -nan
scalar SingleCell.eNB.cellularNic.rlcMux rlcDelayUl:mean -nan
scalar SingleCell.eNB.cellularNic.rlcMux rlcDelayDl:mean -nan
scalar SingleCell.eNB.cellularNic.rlcMux sentPacketToLowerLayer:count 32322
scalar SingleCell.eNB.cellularNic.rlcMux sentPacketToLowerLayer:sum(packetBytes) 1936768
scalar SingleCell.eNB.cellularNic.rlcMux receivedPacketFromLowerLayer:count 17291
scalar SingleCell.eNB.cellularNic.rlcMux receivedPacketFromLowerLayer:sum(packetBytes) 952624
scalar SingleCell.eNB.cellularNic.mac avgServedBlocksUl:mean 2.4478
scalar SingleCell.eNB.cellularNic.mac avgServedBlocksDl:mean 1.7258
scalar SingleCell.eNB.cellularNic.mac harqTxAttemptsUl:mean -nan
scalar SingleCell.eNB.cellularNic.mac harqTxAttemptsDl:mean -nan
scalar SingleCell.eNB.cellularNic.mac harqErrorRate_4th_Ul:mean -nan
scalar SingleCell.eNB.cellularNic.mac harqErrorRate_4th_Dl:mean -nan
scalar SingleCell.eNB.cellularNic.mac harqErrorRate_3rd_Ul:mean -nan
scalar SingleCell.eNB.cellularNic.mac harqErrorRate_3rd_Dl:mean -nan
scalar SingleCell.eNB.cellularNic.mac harqErrorRate_2nd_Ul:mean -nan
scalar SingleCell.eNB.cellularNic.mac harqErrorRate_2nd_Dl:mean -nan
scalar SingleCell.eNB.cellularNic.mac harqErrorRate_1st_Ul:mean -nan
scalar SingleCell.eNB.cellularNic.mac harqErrorRate_1st_Dl:mean -nan
scalar SingleCell.eNB.cellularNic.mac harqErrorRateUl:mean -nan
scalar SingleCell.eNB.cellularNic.mac harqErrorRateDl:mean -nan
scalar SingleCell.eNB.cellularNic.mac macCellPacketLossUl:mean 0
scalar SingleCell.eNB.cellularNic.mac macCellPacketLossDl:mean 0
scalar SingleCell.eNB.cellularNic.mac macPacketLossUl:mean -nan
scalar SingleCell.eNB.cellularNic.mac macPacketLossDl:mean -nan
scalar SingleCell.eNB.cellularNic.mac macThroughputUl:simu5g_rateavg -nan
scalar SingleCell.eNB.cellularNic.mac macThroughputDl:simu5g_rateavg -nan
scalar SingleCell.eNB.cellularNic.mac macDelayUl:mean -nan
scalar SingleCell.eNB.cellularNic.mac macDelayDl:mean -nan
scalar SingleCell.eNB.cellularNic.mac macCellThroughputUl:simu5g_rateavg 204949.8620414426
scalar SingleCell.eNB.cellularNic.mac macCellThroughputDl:simu5g_rateavg 204912.77502738021
scalar SingleCell.eNB.cellularNic.mac sentPacketToLowerLayer:count 70634
scalar SingleCell.eNB.cellularNic.mac sentPacketToLowerLayer:sum(packetBytes) 1084528
scalar SingleCell.eNB.cellularNic.mac sentPacketToUpperLayer:count 33474
scalar SingleCell.eNB.cellularNic.mac sentPacketToUpperLayer:sum(packetBytes) 968807
scalar SingleCell.eNB.cellularNic.mac receivedPacketFromLowerLayer:count 136306
scalar SingleCell.eNB.cellularNic.mac receivedPacketFromLowerLayer:sum(packetBytes) 1125215
scalar SingleCell.eNB.cellularNic.mac receivedPacketFromUpperLayer:count 32322
scalar SingleCell.eNB.cellularNic.mac receivedPacketFromUpperLayer:sum(packetBytes) 1936768
scalar SingleCell.eNB.cellularNic.mac macBufferOverFlowD2D:mean -nan
scalar SingleCell.eNB.cellularNic.mac macBufferOverFlowUl:mean -nan
scalar SingleCell.eNB.cellularNic.mac macBufferOverFlowDl:mean -nan
scalar SingleCell.eNB.cellularNic.channelModel[0] measuredSinrUl:mean -nan
scalar SingleCell.eNB.cellularNic.channelModel[0] measuredSinrDl:mean -nan
scalar SingleCell.eNB.cellularNic.channelModel[0] rcvdSinrD2D:mean -nan
scalar SingleCell.eNB.cellularNic.channelModel[0] rcvdSinrUl:mean -nan
scalar SingleCell.eNB.cellularNic.channelModel[0] rcvdSinrDl:mean -nan
scalar SingleCell.eNB.cellularNic packetDropInterfaceDown:count 0
scalar SingleCell.eNB.cellularNic packetDropInterfaceDown:sum(packetBytes) 0
scalar SingleCell.eNB.cellularNic packetDropNoCarrier:count 0
scalar SingleCell.eNB.cellularNic packetDropNoCarrier:sum(packetBytes) 0
scalar SingleCell.eNB.pppIf.queue queueLength:last 1
scalar SingleCell.eNB.pppIf.queue queueLength:max 19
scalar SingleCell.eNB.pppIf.queue queueLength:timeavg 0.00010928808000000234
scalar SingleCell.eNB.pppIf.queue queueBitLength:last 736
scalar SingleCell.eNB.pppIf.queue queueBitLength:max 13984
scalar SingleCell.eNB.pppIf.queue queueBitLength:timeavg 0.080436026880004161
scalar SingleCell.eNB.pppIf.queue outgoingPackets:count 16053
scalar SingleCell.eNB.pppIf.queue outgoingPacketLengths:sum 11815008
scalar SingleCell.eNB.pppIf.queue incomingPackets:count 16054
scalar SingleCell.eNB.pppIf.queue incomingPacketLengths:sum 11815744
scalar SingleCell.eNB.pppIf.queue droppedPacketsQueueOverflow:count 0
scalar SingleCell.eNB.pppIf.queue droppedPacketLengthsQueueOverflow:sum 0
scalar SingleCell.eNB.pppIf.ppp transmissionState:timeavg 0.00012713183999997539
scalar SingleCell.eNB.pppIf.ppp rxPkOk:count 16139
scalar SingleCell.eNB.pppIf.ppp rxPkOk:sum(packetBytes) 1630039
scalar SingleCell.eNB.pppIf.ppp txPk:count 16053
scalar SingleCell.eNB.pppIf.ppp txPk:sum(packetBytes) 1589247
scalar SingleCell.eNB.pppIf.ppp rcvdPkFromHl:count 16053
scalar SingleCell.eNB.pppIf.ppp rcvdPkFromHl:sum(packetBytes) 1476876
scalar SingleCell.eNB.pppIf.ppp passedUpPk:count 16139
scalar SingleCell.eNB.pppIf.ppp passedUpPk:sum(packetBytes) 1517066
scalar SingleCell.eNB.pppIf.ppp packetDropIncorrectlyReceived:count 0
scalar SingleCell.eNB.pppIf.ppp packetDropIncorrectlyReceived:sum(packetBytes) 0
scalar SingleCell.eNB.pppIf.ppp packetDropInterfaceDown:count 0
scalar SingleCell.eNB.pppIf.ppp packetDropInterfaceDown:sum(packetBytes) 0
scalar SingleCell.eNB.pppIf packetDropInterfaceDown:count 0
scalar SingleCell.eNB.pppIf packetDropInterfaceDown:sum(packetBytes) 0
scalar SingleCell.eNB.pppIf packetDropNoCarrier:count 0
scalar SingleCell.eNB.pppIf packetDropNoCarrier:sum(packetBytes) 0
scalar SingleCell.eNB.pppMEHostIf.queue queueLength:last 0
scalar SingleCell.eNB.pppMEHostIf.queue queueLength:max 0
scalar SingleCell.eNB.pppMEHostIf.queue queueLength:timeavg 0
scalar SingleCell.eNB.pppMEHostIf.queue queueBitLength:last 0
scalar SingleCell.eNB.pppMEHostIf.queue queueBitLength:max 0
scalar SingleCell.eNB.pppMEHostIf.queue queueBitLength:timeavg 0
scalar SingleCell.eNB.pppMEHostIf.queue outgoingPackets:count 0
scalar SingleCell.eNB.pppMEHostIf.queue outgoingPacketLengths:sum 0
scalar SingleCell.eNB.pppMEHostIf.queue incomingPackets:count 0
scalar SingleCell.eNB.pppMEHostIf.queue incomingPacketLengths:sum 0
scalar SingleCell.eNB.pppMEHostIf.queue droppedPacketsQueueOverflow:count 0
scalar SingleCell.eNB.pppMEHostIf.queue droppedPacketLengthsQueueOverflow:sum 0
scalar SingleCell.eNB.pppMEHostIf.ppp transmissionState:timeavg 0
scalar SingleCell.eNB.pppMEHostIf.ppp rxPkOk:count 0
scalar SingleCell.eNB.pppMEHostIf.ppp rxPkOk:sum(packetBytes) 0
scalar SingleCell.eNB.pppMEHostIf.ppp txPk:count 0
scalar SingleCell.eNB.pppMEHostIf.ppp txPk:sum(packetBytes) 0
scalar SingleCell.eNB.pppMEHostIf.ppp rcvdPkFromHl:count 0
scalar SingleCell.eNB.pppMEHostIf.ppp rcvdPkFromHl:sum(packetBytes) 0
scalar SingleCell.eNB.pppMEHostIf.ppp passedUpPk:count 0
scalar SingleCell.eNB.pppMEHostIf.ppp passedUpPk:sum(packetBytes) 0
scalar SingleCell.eNB.pppMEHostIf.ppp packetDropIncorrectlyReceived:count 0
scalar SingleCell.eNB.pppMEHostIf.ppp packetDropIncorrectlyReceived:sum(packetBytes) 0
scalar SingleCell.eNB.pppMEHostIf.ppp packetDropInterfaceDown:count 0
scalar SingleCell.eNB.pppMEHostIf.ppp packetDropInterfaceDown:sum(packetBytes) 0
scalar SingleCell.eNB.pppMEHostIf packetDropInterfaceDown:count 0
scalar SingleCell.eNB.pppMEHostIf packetDropInterfaceDown:sum(packetBytes) 0
scalar SingleCell.eNB.pppMEHostIf packetDropNoCarrier:count 0
scalar SingleCell.eNB.pppMEHostIf packetDropNoCarrier:sum(packetBytes) 0
scalar SingleCell.eNB.ipv4.ip packetDropAddressResolutionFailed:count 0
scalar SingleCell.eNB.ipv4.ip packetDropAddressResolutionFailed:sum(packetBytes) 0
scalar SingleCell.eNB.ipv4.ip packetDropHopLimitReached:count 0
scalar SingleCell.eNB.ipv4.ip packetDropHopLimitReached:sum(packetBytes) 0
scalar SingleCell.eNB.ipv4.ip packetDropForwardingDisabled:count 0
scalar SingleCell.eNB.ipv4.ip packetDropForwardingDisabled:sum(packetBytes) 0
scalar SingleCell.eNB.ipv4.ip packetDropNoInterfaceFound:count 0
scalar SingleCell.eNB.ipv4.ip packetDropNoInterfaceFound:sum(packetBytes) 0
scalar SingleCell.eNB.ipv4.ip packetDropNoRouteFound:count 0
scalar SingleCell.eNB.ipv4.ip packetDropNoRouteFound:sum(packetBytes) 0
scalar SingleCell.eNB.ipv4.ip packetDropUndefined:count 0
scalar SingleCell.eNB.ipv4.ip packetDropUndefined:sum(packetBytes) 0
scalar SingleCell.eNB.ipv4.arp arpResolutionFailed:count 0
scalar SingleCell.eNB.ipv4.arp arpResolutionCompleted:count 0
scalar SingleCell.eNB.ipv4.arp arpResolutionInitiated:count 0
scalar SingleCell.eNB.ipv4.arp arpReplySent:count 0
scalar SingleCell.eNB.ipv4.arp arpReplySent:sum(packetBytes) 0
scalar SingleCell.eNB.ipv4.arp arpRequestSent:count 0
scalar SingleCell.eNB.ipv4.arp arpRequestSent:sum(packetBytes) 0
scalar SingleCell.eNB.udp packetReceived:count 16139
scalar SingleCell.eNB.udp packetReceived:sum(packetBytes) 1194286
scalar SingleCell.eNB.udp packetSent:count 16054
scalar SingleCell.eNB.udp packetSent:sum(packetBytes) 1155888
scalar SingleCell.eNB.udp passedUpPk:count 16139
scalar SingleCell.eNB.udp droppedPkWrongPort:count 0
scalar SingleCell.eNB.udp droppedPkBadChecksum:count 0
scalar SingleCell.ue[0].lo[0].lo rcvdPkFromHl:count 0
scalar SingleCell.ue[0].lo[0].lo rcvdPkFromHl:sum(packetBytes) 0
scalar SingleCell.ue[0].lo[0].lo passedUpPk:count 0
scalar SingleCell.ue[0].lo[0].lo passedUpPk:sum(packetBytes) 0
scalar SingleCell.ue[0].lo[0] packetDropInterfaceDown:count 0
scalar SingleCell.ue[0].lo[0] packetDropInterfaceDown:sum(packetBytes) 0
scalar SingleCell.ue[0].lo[0] packetDropNoCarrier:count 0
scalar SingleCell.ue[0].lo[0] packetDropNoCarrier:sum(packetBytes) 0
scalar SingleCell.ue[0].cellularNic.rlcMux rlcCellThroughputD2D:simu5g_rateavg -nan
scalar SingleCell.ue[0].cellularNic.rlcMux rlcPduThroughputD2D:simu5g_rateavg -nan
scalar SingleCell.ue[0].cellularNic.rlcMux rlcPduDelayD2D:mean -nan
scalar SingleCell.ue[0].cellularNic.rlcMux rlcThroughputD2D:simu5g_rateavg -nan
scalar SingleCell.ue[0].cellularNic.rlcMux rlcDelayD2D:mean -nan
scalar SingleCell.ue[0].cellularNic.rlcMux rlcCellThroughputUl:simu5g_rateavg -nan
scalar SingleCell.ue[0].cellularNic.rlcMux rlcCellThroughputDl:simu5g_rateavg -nan
scalar SingleCell.ue[0].cellularNic.rlcMux rlcPduThroughputUl:simu5g_rateavg 0
scalar SingleCell.ue[0].cellularNic.rlcMux rlcPduThroughputDl:simu5g_rateavg 0
scalar SingleCell.ue[0].cellularNic.rlcMux rlcPduDelayUl:mean 0.0041234567901234599
scalar SingleCell.ue[0].cellularNic.rlcMux rlcPduDelayDl:mean 0.0040369230769230794
scalar SingleCell.ue[0].cellularNic.rlcMux rlcThroughputUl:simu5g_rateavg 1802.8033060571086
scalar SingleCell.ue[0].cellularNic.rlcMux rlcThroughputDl:simu5g_rateavg 1880.197776010255
scalar SingleCell.ue[0].cellularNic.rlcMux rlcDelayUl:mean 0.009700617283950554
scalar SingleCell.ue[0].cellularNic.rlcMux rlcDelayDl:mean 0.0045168963555415383
scalar SingleCell.ue[0].cellularNic.rlcMux sentPacketToLowerLayer:count 649
scalar SingleCell.ue[0].cellularNic.rlcMux sentPacketToLowerLayer:sum(packetBytes) 37641
scalar SingleCell.ue[0].cellularNic.rlcMux receivedPacketFromLowerLayer:count 325
scalar SingleCell.ue[0].cellularNic.rlcMux receivedPacketFromLowerLayer:sum(packetBytes) 19825
scalar SingleCell.ue[0].cellularNic.mac harqTxAttemptsUl:mean 1.0030864197530864
scalar SingleCell.ue[0].cellularNic.mac harqTxAttemptsDl:mean 1.0061538461538462
scalar SingleCell.ue[0].cellularNic.mac harqErrorRate_4th_Ul:mean -nan
scalar SingleCell.ue[0].cellularNic.mac harqErrorRate_4th_Dl:mean -nan
scalar SingleCell.ue[0].cellularNic.mac harqErrorRate_3rd_Ul:mean -nan
scalar SingleCell.ue[0].cellularNic.mac harqErrorRate_3rd_Dl:mean -nan
scalar SingleCell.ue[0].cellularNic.mac harqErrorRate_2nd_Ul:mean 0
scalar SingleCell.ue[0].cellularNic.mac harqErrorRate_2nd_Dl:mean 0
scalar SingleCell.ue[0].cellularNic.mac harqErrorRate_1st_Ul:mean 0.0030864197530864196
scalar SingleCell.ue[0].cellularNic.mac harqErrorRate_1st_Dl:mean 0.0061538461538461538
scalar SingleCell.ue[0].cellularNic.mac harqErrorRateUl:mean 0.0030769230769230769
scalar SingleCell.ue[0].cellularNic.mac harqErrorRateDl:mean 0.0061162079510703364
scalar SingleCell.ue[0].cellularNic.mac macCellPacketLossUl:mean -nan
scalar SingleCell.ue[0].cellularNic.mac macCellPacketLossDl:mean -nan
scalar SingleCell.ue[0].cellularNic.mac macPacketLossUl:mean 0
scalar SingleCell.ue[0].cellularNic.mac macPacketLossDl:mean 0
scalar SingleCell.ue[0].cellularNic.mac macThroughputUl:simu5g_rateavg 1929.3952869643804
scalar SingleCell.ue[0].cellularNic.mac macThroughputDl:simu5g_rateavg 2007.6688116719647
scalar SingleCell.ue[0].cellularNic.mac macDelayUl:mean 0.0041234567901234599
scalar SingleCell.ue[0].cellularNic.mac macDelayDl:mean 0.0040369230769230794
scalar SingleCell.ue[0].cellularNic.mac macCellThroughputUl:simu5g_rateavg -nan
scalar SingleCell.ue[0].cellularNic.mac macCellThroughputDl:simu5g_rateavg -nan
scalar SingleCell.ue[0].cellularNic.mac sentPacketToLowerLayer:count 985
scalar SingleCell.ue[0].cellularNic.mac sentPacketToLowerLayer:sum(packetBytes) 20485
scalar SingleCell.ue[0].cellularNic.mac sentPacketToUpperLayer:count 649
scalar SingleCell.ue[0].cellularNic.mac sentPacketToUpperLayer:sum(packetBytes) 20149
scalar SingleCell.ue[0].cellularNic.mac receivedPacketFromLowerLayer:count 1309
scalar SingleCell.ue[0].cellularNic.mac receivedPacketFromLowerLayer:sum(packetBytes) 21583
scalar SingleCell.ue[0].cellularNic.mac receivedPacketFromUpperLayer:count 649
scalar SingleCell.ue[0].cellularNic.mac receivedPacketFromUpperLayer:sum(packetBytes) 37641
scalar SingleCell.ue[0].cellularNic.mac macBufferOverFlowD2D:mean -nan
scalar SingleCell.ue[0].cellularNic.mac macBufferOverFlowUl:mean -nan
scalar SingleCell.ue[0].cellularNic.mac macBufferOverFlowDl:mean -nan
scalar SingleCell.ue[0].cellularNic.phy distance:mean 133.21587653779665
scalar SingleCell.ue[0].cellularNic.phy averageCqiUl:mean 13.664615384615384
scalar SingleCell.ue[0].cellularNic.phy averageCqiUl:count 325
scalar SingleCell.ue[0].cellularNic.phy averageCqiDl:mean 14.217125382262997
scalar SingleCell.ue[0].cellularNic.phy averageCqiDl:count 327
scalar SingleCell.ue[0].cellularNic.channelModel[0] measuredSinrUl:mean 35.013867078345378
scalar SingleCell.ue[0].cellularNic.channelModel[0] measuredSinrDl:mean 43.708830758749315
scalar SingleCell.ue[0].cellularNic.channelModel[0] rcvdSinrD2D:mean -nan
scalar SingleCell.ue[0].cellularNic.channelModel[0] rcvdSinrUl:mean 37.560966188713692
scalar SingleCell.ue[0].cellularNic.channelModel[0] rcvdSinrDl:mean 44.981158817810254
scalar SingleCell.ue[0].cellularNic packetDropInterfaceDown:count 0
scalar SingleCell.ue[0].cellularNic packetDropInterfaceDown:sum(packetBytes) 0
scalar SingleCell.ue[0].cellularNic packetDropNoCarrier:count 0
scalar SingleCell.ue[0].cellularNic packetDropNoCarrier:sum(packetBytes) 0
scalar SingleCell.ue[0].encap pauseSent:count 0
scalar SingleCell.ue[0].encap pauseSent:sum 0
scalar SingleCell.ue[0].encap decapPk:count 0
scalar SingleCell.ue[0].encap decapPk:sum(packetBytes) 0
scalar SingleCell.ue[0].encap encapPk:count 0
scalar SingleCell.ue[0].encap encapPk:sum(packetBytes) 0
scalar SingleCell.ue[0].ipv4.ip packetDropAddressResolutionFailed:count 0
scalar SingleCell.ue[0].ipv4.ip packetDropAddressResolutionFailed:sum(packetBytes) 0
scalar SingleCell.ue[0].ipv4.ip packetDropHopLimitReached:count 0
scalar SingleCell.ue[0].ipv4.ip packetDropHopLimitReached:sum(packetBytes) 0
scalar SingleCell.ue[0].ipv4.ip packetDropForwardingDisabled:count 0
scalar SingleCell.ue[0].ipv4.ip packetDropForwardingDisabled:sum(packetBytes) 0
scalar SingleCell.ue[0].ipv4.ip packetDropNoInterfaceFound:count 0
scalar SingleCell.ue[0].ipv4.ip packetDropNoInterfaceFound:sum(packetBytes) 0
scalar SingleCell.ue[0].ipv4.ip packetDropNoRouteFound:count 0
scalar SingleCell.ue[0].ipv4.ip packetDropNoRouteFound:sum(packetBytes) 0
scalar SingleCell.ue[0].ipv4.ip packetDropUndefined:count 0
scalar SingleCell.ue[0].ipv4.ip packetDropUndefined:sum(packetBytes) 0
scalar SingleCell.ue[0].ipv4.arp arpResolutionFailed:count 0
scalar SingleCell.ue[0].ipv4.arp arpResolutionCompleted:count 0
scalar SingleCell.ue[0].ipv4.arp arpResolutionInitiated:count 0
scalar SingleCell.ue[0].ipv4.arp arpReplySent:count 0
scalar SingleCell.ue[0].ipv4.arp arpReplySent:sum(packetBytes) 0
scalar SingleCell.ue[0].ipv4.arp arpRequestSent:count 0
scalar SingleCell.ue[0].ipv4.arp arpRequestSent:sum(packetBytes) 0
scalar SingleCell.ue[0].udp packetReceived:count 325
scalar SingleCell.ue[0].udp packetReceived:sum(packetBytes) 12350
scalar SingleCell.ue[0].udp packetSent:count 0
scalar SingleCell.ue[0].udp packetSent:sum(packetBytes) 0
scalar SingleCell.ue[0].udp passedUpPk:count 0
scalar SingleCell.ue[0].udp droppedPkWrongPort:count 325
scalar SingleCell.ue[0].udp droppedPkBadChecksum:count 0
scalar SingleCell.ue[1].lo[0].lo rcvdPkFromHl:count 0
scalar SingleCell.ue[1].lo[0].lo rcvdPkFromHl:sum(packetBytes) 0
scalar SingleCell.ue[1].lo[0].lo passedUpPk:count 0
scalar SingleCell.ue[1].lo[0].lo passedUpPk:sum(packetBytes) 0
scalar SingleCell.ue[1].lo[0] packetDropInterfaceDown:count 0
scalar SingleCell.ue[1].lo[0] packetDropInterfaceDown:sum(packetBytes) 0
scalar SingleCell.ue[1].lo[0] packetDropNoCarrier:count 0
scalar SingleCell.ue[1].lo[0] packetDropNoCarrier:sum(packetBytes) 0
scalar SingleCell.ue[1].cellularNic.rlcMux rlcCellThroughputD2D:simu5g_rateavg -nan
scalar SingleCell.ue[1].cellularNic.rlcMux rlcPduThroughputD2D:simu5g_rateavg -nan
scalar SingleCell.ue[1].cellularNic.rlcMux rlcPduDelayD2D:mean -nan
scalar SingleCell.ue[1].cellularNic.rlcMux rlcThroughputD2D:simu5g_rateavg -nan
scalar SingleCell.ue[1].cellularNic.rlcMux rlcDelayD2D:mean -nan
scalar SingleCell.ue[1].cellularNic.rlcMux rlcCellThroughputUl:simu5g_rateavg -nan
scalar SingleCell.ue[1].cellularNic.rlcMux rlcCellThroughputDl:simu5g_rateavg -nan
scalar SingleCell.ue[1].cellularNic.rlcMux rlcPduThroughputUl:simu5g_rateavg 0
scalar SingleCell.ue[1].cellularNic.rlcMux rlcPduThroughputDl:simu5g_rateavg 0
scalar SingleCell.ue[1].cellularNic.rlcMux rlcPduDelayUl:mean 0.0049887640449438235
scalar SingleCell.ue[1].cellularNic.rlcMux rlcPduDelayDl:mean 0.0041567164179104506
scalar SingleCell.ue[1].cellularNic.rlcMux rlcThroughputUl:simu5g_rateavg 1583.2852625802104
scalar SingleCell.ue[1].cellularNic.rlcMux rlcThroughputDl:simu5g_rateavg 1653.1895242442392
scalar SingleCell.ue[1].cellularNic.rlcMux rlcDelayUl:mean 0.011567164179104415
scalar SingleCell.ue[1].cellularNic.rlcMux rlcDelayDl:mean 0.0047992799439962684
scalar SingleCell.ue[1].cellularNic.rlcMux sentPacketToLowerLayer:count 535
scalar SingleCell.ue[1].cellularNic.rlcMux sentPacketToLowerLayer:sum(packetBytes) 31086
scalar SingleCell.ue[1].cellularNic.rlcMux receivedPacketFromLowerLayer:count 268
scalar SingleCell.ue[1].cellularNic.rlcMux receivedPacketFromLowerLayer:sum(packetBytes) 16348
scalar SingleCell.ue[1].cellularNic.mac harqTxAttemptsUl:mean 1.0224719101123596
scalar SingleCell.ue[1].cellularNic.mac harqTxAttemptsDl:mean 1.0261194029850746
scalar SingleCell.ue[1].cellularNic.mac harqErrorRate_4th_Ul:mean -nan
scalar SingleCell.ue[1].cellularNic.mac harqErrorRate_4th_Dl:mean -nan
scalar SingleCell.ue[1].cellularNic.mac harqErrorRate_3rd_Ul:mean -nan
scalar SingleCell.ue[1].cellularNic.mac harqErrorRate_3rd_Dl:mean -nan
scalar SingleCell.ue[1].cellularNic.mac harqErrorRate_2nd_Ul:mean 0
scalar SingleCell.ue[1].cellularNic.mac harqErrorRate_2nd_Dl:mean 0
scalar SingleCell.ue[1].cellularNic.mac harqErrorRate_1st_Ul:mean 0.02247191011235955
scalar SingleCell.ue[1].cellularNic.mac harqErrorRate_1st_Dl:mean 0.026119402985074626
scalar SingleCell.ue[1].cellularNic.mac harqErrorRateUl:mean 0.02197802197802198
scalar SingleCell.ue[1].cellularNic.mac harqErrorRateDl:mean 0.025454545454545455
scalar SingleCell.ue[1].cellularNic.mac macCellPacketLossUl:mean -nan
scalar SingleCell.ue[1].cellularNic.mac macCellPacketLossDl:mean -nan
scalar SingleCell.ue[1].cellularNic.mac macPacketLossUl:mean 0
scalar SingleCell.ue[1].cellularNic.mac macPacketLossDl:mean 0
scalar SingleCell.ue[1].cellularNic.mac macThroughputUl:simu5g_rateavg 1695.3355445537693
scalar SingleCell.ue[1].cellularNic.mac macThroughputDl:simu5g_rateavg 1765.2701699557128
scalar SingleCell.ue[1].cellularNic.mac macDelayUl:mean 0.0049887640449438235
scalar SingleCell.ue[1].cellularNic.mac macDelayDl:mean 0.0041567164179104506
scalar SingleCell.ue[1].cellularNic.mac macCellThroughputUl:simu5g_rateavg -nan
scalar SingleCell.ue[1].cellularNic.mac macCellThroughputDl:simu5g_rateavg -nan
scalar SingleCell.ue[1].cellularNic.mac sentPacketToLowerLayer:count 824
scalar SingleCell.ue[1].cellularNic.mac sentPacketToLowerLayer:sum(packetBytes) 17261
scalar SingleCell.ue[1].cellularNic.mac sentPacketToUpperLayer:count 535
scalar SingleCell.ue[1].cellularNic.mac sentPacketToUpperLayer:sum(packetBytes) 16615
scalar SingleCell.ue[1].cellularNic.mac receivedPacketFromLowerLayer:count 1097
scalar SingleCell.ue[1].cellularNic.mac receivedPacketFromLowerLayer:sum(packetBytes) 18147
scalar SingleCell.ue[1].cellularNic.mac receivedPacketFromUpperLayer:count 535
scalar SingleCell.ue[1].cellularNic.mac receivedPacketFromUpperLayer:sum(packetBytes) 31086
scalar SingleCell.ue[1].cellularNic.mac macBufferOverFlowD2D:mean -nan
scalar SingleCell.ue[1].cellularNic.mac macBufferOverFlowUl:mean -nan
scalar SingleCell.ue[1].cellularNic.mac macBufferOverFlowDl:mean -nan
scalar SingleCell.ue[1].cellularNic.phy distance:mean 185.58944150636097
scalar SingleCell.ue[1].cellularNic.phy averageCqiUl:mean 11.989010989010989
scalar SingleCell.ue[1].cellularNic.phy averageCqiUl:count 273
scalar SingleCell.ue[1].cellularNic.phy averageCqiDl:mean 13.792727272727273
scalar SingleCell.ue[1].cellularNic.phy averageCqiDl:count 275
scalar SingleCell.ue[1].cellularNic.channelModel[0] measuredSinrUl:mean 26.929666922994578
scalar SingleCell.ue[1].cellularNic.channelModel[0] measuredSinrDl:mean 37.015212212426775
scalar SingleCell.ue[1].cellularNic.channelModel[0] rcvdSinrD2D:mean -nan
scalar SingleCell.ue[1].cellularNic.channelModel[0] rcvdSinrUl:mean 24.105539312316605
scalar SingleCell.ue[1].cellularNic.channelModel[0] rcvdSinrDl:mean 37.382484920338776
scalar SingleCell.ue[1].cellularNic packetDropInterfaceDown:count 0
scalar SingleCell.ue[1].cellularNic packetDropInterfaceDown:sum(packetBytes) 0
scalar SingleCell.ue[1].cellularNic packetDropNoCarrier:count 0
scalar SingleCell.ue[1].cellularNic packetDropNoCarrier:sum(packetBytes) 0
scalar SingleCell.ue[1].encap pauseSent:count 0
scalar SingleCell.ue[1].encap pauseSent:sum 0
scalar SingleCell.ue[1].encap decapPk:count 0
scalar SingleCell.ue[1].encap decapPk:sum(packetBytes) 0
scalar SingleCell.ue[1].encap encapPk:count 0
scalar SingleCell.ue[1].encap encapPk:sum(packetBytes) 0
scalar SingleCell.ue[1].ipv4.ip packetDropAddressResolutionFailed:count 0
scalar SingleCell.ue[1].ipv4.ip packetDropAddressResolutionFailed:sum(packetBytes) 0
scalar SingleCell.ue[1].ipv4.ip packetDropHopLimitReached:count 0
scalar SingleCell.ue[1].ipv4.ip packetDropHopLimitReached:sum(packetBytes) 0
scalar SingleCell.ue[1].ipv4.ip packetDropForwardingDisabled:count 0
scalar SingleCell.ue[1].ipv4.ip packetDropForwardingDisabled:sum(packetBytes) 0
scalar SingleCell.ue[1].ipv4.ip packetDropNoInterfaceFound:count 0
scalar SingleCell.ue[1].ipv4.ip packetDropNoInterfaceFound:sum(packetBytes) 0
scalar SingleCell.ue[1].ipv4.ip packetDropNoRouteFound:count 0
scalar SingleCell.ue[1].ipv4.ip packetDropNoRouteFound:sum(packetBytes) 0
scalar SingleCell.ue[1].ipv4.ip packetDropUndefined:count 0
scalar SingleCell.ue[1].ipv4.ip packetDropUndefined:sum(packetBytes) 0
scalar SingleCell.ue[1].ipv4.arp arpResolutionFailed:count 0
scalar SingleCell.ue[1].ipv4.arp arpResolutionCompleted:count 0
scalar SingleCell.ue[1].ipv4.arp arpResolutionInitiated:count 0
scalar SingleCell.ue[1].ipv4.arp arpReplySent:count 0
scalar SingleCell.ue[1].ipv4.arp arpReplySent:sum(packetBytes) 0
scalar SingleCell.ue[1].ipv4.arp arpRequestSent:count 0
scalar SingleCell.ue[1].ipv4.arp arpRequestSent:sum(packetBytes) 0
scalar SingleCell.ue[1].udp packetReceived:count 268
scalar SingleCell.ue[1].udp packetReceived:sum(packetBytes) 10184
scalar SingleCell.ue[1].udp packetSent:count 0
scalar SingleCell.ue[1].udp packetSent:sum(packetBytes) 0
scalar SingleCell.ue[1].udp passedUpPk:count 0
scalar SingleCell.ue[1].udp droppedPkWrongPort:count 268
scalar SingleCell.ue[1].udp droppedPkBadChecksum:count 0
scalar SingleCell.ue[2].lo[0].lo rcvdPkFromHl:count 0
scalar SingleCell.ue[2].lo[0].lo rcvdPkFromHl:sum(packetBytes) 0
scalar SingleCell.ue[2].lo[0].lo passedUpPk:count 0
scalar SingleCell.ue[2].lo[0].lo passedUpPk:sum(packetBytes) 0
scalar SingleCell.ue[2].lo[0] packetDropInterfaceDown:count 0
scalar SingleCell.ue[2].lo[0] packetDropInterfaceDown:sum(packetBytes) 0
scalar SingleCell.ue[2].lo[0] packetDropNoCarrier:count 0
scalar SingleCell.ue[2].lo[0] packetDropNoCarrier:sum(packetBytes) 0
scalar SingleCell.ue[2].cellularNic.rlcMux rlcCellThroughputD2D:simu5g_rateavg -nan
scalar SingleCell.ue[2].cellularNic.rlcMux rlcPduThroughputD2D:simu5g_rateavg -nan
scalar SingleCell.ue[2].cellularNic.rlcMux rlcPduDelayD2D:mean -nan
scalar SingleCell.ue[2].cellularNic.rlcMux rlcThroughputD2D:simu5g_rateavg -nan
scalar SingleCell.ue[2].cellularNic.rlcMux rlcDelayD2D:mean -nan
scalar SingleCell.ue[2].cellularNic.rlcMux rlcCellThroughputUl:simu5g_rateavg -nan
scalar SingleCell.ue[2].cellularNic.rlcMux rlcCellThroughputDl:simu5g_rateavg -nan
scalar SingleCell.ue[2].cellularNic.rlcMux rlcPduThroughputUl:simu5g_rateavg 0
scalar SingleCell.ue[2].cellularNic.rlcMux rlcPduThroughputDl:simu5g_rateavg 0
scalar SingleCell.ue[2].cellularNic.rlcMux rlcPduDelayUl:mean 0.0041481481481481508
scalar SingleCell.ue[2].cellularNic.rlcMux rlcPduDelayDl:mean 0.0041333333333333361
scalar SingleCell.ue[2].cellularNic.rlcMux rlcThroughputUl:simu5g_rateavg 2035.8803187352726
scalar SingleCell.ue[2].cellularNic.rlcMux rlcThroughputDl:simu5g_rateavg 2132.0870264941395
scalar SingleCell.ue[2].cellularNic.rlcMux rlcDelayUl:mean 0.009862962962962905
scalar SingleCell.ue[2].cellularNic.rlcMux rlcDelayDl:mean 0.0048156088239444299
scalar SingleCell.ue[2].cellularNic.rlcMux sentPacketToLowerLayer:count 540
scalar SingleCell.ue[2].cellularNic.rlcMux sentPacketToLowerLayer:sum(packetBytes) 31320
scalar SingleCell.ue[2].cellularNic.rlcMux receivedPacketFromLowerLayer:count 270
scalar SingleCell.ue[2].cellularNic.rlcMux receivedPacketFromLowerLayer:sum(packetBytes) 16470
scalar SingleCell.ue[2].cellularNic.mac harqTxAttemptsUl:mean 1.0037037037037038
scalar SingleCell.ue[2].cellularNic.mac harqTxAttemptsDl:mean 1.0222222222222221
scalar SingleCell.ue[2].cellularNic.mac harqErrorRate_4th_Ul:mean -nan
scalar SingleCell.ue[2].cellularNic.mac harqErrorRate_4th_Dl:mean -nan
scalar SingleCell.ue[2].cellularNic.mac harqErrorRate_3rd_Ul:mean -nan
scalar SingleCell.ue[2].cellularNic.mac harqErrorRate_3rd_Dl:mean -nan
scalar SingleCell.ue[2].cellularNic.mac harqErrorRate_2nd_Ul:mean 0
scalar SingleCell.ue[2].cellularNic.mac harqErrorRate_2nd_Dl:mean 0
scalar SingleCell.ue[2].cellularNic.mac harqErrorRate_1st_Ul:mean 0.0037037037037037038
scalar SingleCell.ue[2].cellularNic.mac harqErrorRate_1st_Dl:mean 0.022222222222222223
scalar SingleCell.ue[2].cellularNic.mac harqErrorRateUl:mean 0.0036900369003690036
scalar SingleCell.ue[2].cellularNic.mac harqErrorRateDl:mean 0.021739130434782608
scalar SingleCell.ue[2].cellularNic.mac macCellPacketLossUl:mean -nan
scalar SingleCell.ue[2].cellularNic.mac macCellPacketLossDl:mean -nan
scalar SingleCell.ue[2].cellularNic.mac macPacketLossUl:mean 0
scalar SingleCell.ue[2].cellularNic.mac macPacketLossDl:mean 0
scalar SingleCell.ue[2].cellularNic.mac macThroughputUl:simu5g_rateavg 2180.0372387147709
scalar SingleCell.ue[2].cellularNic.mac macThroughputDl:simu5g_rateavg 2276.635299476794
scalar SingleCell.ue[2].cellularNic.mac macDelayUl:mean 0.0041481481481481508
scalar SingleCell.ue[2].cellularNic.mac macDelayDl:mean 0.0041333333333333361
scalar SingleCell.ue[2].cellularNic.mac macCellThroughputUl:simu5g_rateavg -nan
scalar SingleCell.ue[2].cellularNic.mac macCellThroughputDl:simu5g_rateavg -nan
scalar SingleCell.ue[2].cellularNic.mac sentPacketToLowerLayer:count 823
scalar SingleCell.ue[2].cellularNic.mac sentPacketToLowerLayer:sum(packetBytes) 17083
scalar SingleCell.ue[2].cellularNic.mac sentPacketToUpperLayer:count 540
scalar SingleCell.ue[2].cellularNic.mac sentPacketToUpperLayer:sum(packetBytes) 16740
scalar SingleCell.ue[2].cellularNic.mac receivedPacketFromLowerLayer:count 1094
scalar SingleCell.ue[2].cellularNic.mac receivedPacketFromLowerLayer:sum(packetBytes) 18206
scalar SingleCell.ue[2].cellularNic.mac receivedPacketFromUpperLayer:count 540
scalar SingleCell.ue[2].cellularNic.mac receivedPacketFromUpperLayer:sum(packetBytes) 31320
scalar SingleCell.ue[2].cellularNic.mac macBufferOverFlowD2D:mean -nan
scalar SingleCell.ue[2].cellularNic.mac macBufferOverFlowUl:mean -nan
scalar SingleCell.ue[2].cellularNic.mac macBufferOverFlowDl:mean -nan
scalar SingleCell.ue[2].cellularNic.phy distance:mean 256.48415189632129
scalar SingleCell.ue[2].cellularNic.phy averageCqiUl:mean 12.413284132841328
scalar SingleCell.ue[2].cellularNic.phy averageCqiUl:count 271
scalar SingleCell.ue[2].cellularNic.phy averageCqiDl:mean 14.228260869565217
scalar SingleCell.ue[2].cellularNic.phy averageCqiDl:count 276
scalar SingleCell.ue[2].cellularNic.channelModel[0] measuredSinrUl:mean 28.471761755321253
scalar SingleCell.ue[2].cellularNic.channelModel[0] measuredSinrDl:mean 40.443555420860434
scalar SingleCell.ue[2].cellularNic.channelModel[0] rcvdSinrD2D:mean -nan
scalar SingleCell.ue[2].cellularNic.channelModel[0] rcvdSinrUl:mean 33.239541041668687
scalar SingleCell.ue[2].cellularNic.channelModel[0] rcvdSinrDl:mean 38.376777429599862
scalar SingleCell.ue[2].cellularNic packetDropInterfaceDown:count 0
scalar SingleCell.ue[2].cellularNic packetDropInterfaceDown:sum(packetBytes) 0
scalar SingleCell.ue[2].cellularNic packetDropNoCarrier:count 0
scalar SingleCell.ue[2].cellularNic packetDropNoCarrier:sum(packetBytes) 0
scalar SingleCell.ue[2].encap pauseSent:count 0
scalar SingleCell.ue[2].encap pauseSent:sum 0
scalar SingleCell.ue[2].encap decapPk:count 0
scalar SingleCell.ue[2].encap decapPk:sum(packetBytes) 0
scalar SingleCell.ue[2].encap encapPk:count 0
scalar SingleCell.ue[2].encap encapPk:sum(packetBytes) 0
scalar SingleCell.ue[2].ipv4.ip packetDropAddressResolutionFailed:count 0
scalar SingleCell.ue[2].ipv4.ip packetDropAddressResolutionFailed:sum(packetBytes) 0
scalar SingleCell.ue[2].ipv4.ip packetDropHopLimitReached:count 0
scalar SingleCell.ue[2].ipv4.ip packetDropHopLimitReached:sum(packetBytes) 0
scalar SingleCell.ue[2].ipv4.ip packetDropForwardingDisabled:count 0
scalar SingleCell.ue[2].ipv4.ip packetDropForwardingDisabled:sum(packetBytes) 0
scalar SingleCell.ue[2].ipv4.ip packetDropNoInterfaceFound:count 0
scalar SingleCell.ue[2].ipv4.ip packetDropNoInterfaceFound:sum(packetBytes) 0
scalar SingleCell.ue[2].ipv4.ip packetDropNoRouteFound:count 0
scalar SingleCell.ue[2].ipv4.ip packetDropNoRouteFound:sum(packetBytes) 0
scalar SingleCell.ue[2].ipv4.ip packetDropUndefined:count 0
scalar SingleCell.ue[2].ipv4.ip packetDropUndefined:sum(packetBytes) 0
scalar SingleCell.ue[2].ipv4.arp arpResolutionFailed:count 0
scalar SingleCell.ue[2].ipv4.arp arpResolutionCompleted:count 0
scalar SingleCell.ue[2].ipv4.arp arpResolutionInitiated:count 0
scalar SingleCell.ue[2].ipv4.arp arpReplySent:count 0
scalar SingleCell.ue[2].ipv4.arp arpReplySent:sum(packetBytes) 0
scalar SingleCell.ue[2].ipv4.arp arpRequestSent:count 0
scalar SingleCell.ue[2].ipv4.arp arpRequestSent:sum(packetBytes) 0
scalar SingleCell.ue[2].udp packetReceived:count 270
scalar SingleCell.ue[2].udp packetReceived:sum(packetBytes) 10260
scalar SingleCell.ue[2].udp packetSent:count 0
scalar SingleCell.ue[2].udp packetSent:sum(packetBytes) 0
scalar SingleCell.ue[2].udp passedUpPk:count 0
scalar SingleCell.ue[2].udp droppedPkWrongPort:count 270
scalar SingleCell.ue[2].udp droppedPkBadChecksum:count 0
scalar SingleCell.ue[3].lo[0].lo rcvdPkFromHl:count 0
scalar SingleCell.ue[3].lo[0].lo rcvdPkFromHl:sum(packetBytes) 0
scalar SingleCell.ue[3].lo[0].lo passedUpPk:count 0
scalar SingleCell.ue[3].lo[0].lo passedUpPk:sum(packetBytes) 0
scalar SingleCell.ue[3].lo[0] packetDropInterfaceDown:count 0
scalar SingleCell.ue[3].lo[0] packetDropInterfaceDown:sum(packetBytes) 0
scalar SingleCell.ue[3].lo[0] packetDropNoCarrier:count 0
scalar SingleCell.ue[3].lo[0] packetDropNoCarrier:sum(packetBytes) 0
scalar SingleCell.ue[3].cellularNic.rlcMux rlcCellThroughputD2D:simu5g_rateavg -nan
scalar SingleCell.ue[3].cellularNic.rlcMux rlcPduThroughputD2D:simu5g_rateavg -nan
scalar SingleCell.ue[3].cellularNic.rlcMux rlcPduDelayD2D:mean -nan
scalar SingleCell.ue[3].cellularNic.rlcMux rlcThroughputD2D:simu5g_rateavg -nan
scalar SingleCell.ue[3].cellularNic.rlcMux rlcDelayD2D:mean -nan
scalar SingleCell.ue[3].cellularNic.rlcMux rlcCellThroughputUl:simu5g_rateavg -nan
scalar SingleCell.ue[3].cellularNic.rlcMux rlcCellThroughputDl:simu5g_rateavg -nan
scalar SingleCell.ue[3].cellularNic.rlcMux rlcPduThroughputUl:simu5g_rateavg 0
scalar SingleCell.ue[3].cellularNic.rlcMux rlcPduThroughputDl:simu5g_rateavg 0
scalar SingleCell.ue[3].cellularNic.rlcMux rlcPduDelayUl:mean 0.0070275229357798187
scalar SingleCell.ue[3].cellularNic.rlcMux rlcPduDelayDl:mean 0.0040681818181818215
scalar SingleCell.ue[3].cellularNic.rlcMux rlcThroughputUl:simu5g_rateavg 2776.4057692915958
scalar SingleCell.ue[3].cellularNic.rlcMux rlcThroughputDl:simu5g_rateavg 2919.5895262168797
scalar SingleCell.ue[3].cellularNic.rlcMux rlcDelayUl:mean 0.032883561643835671
scalar SingleCell.ue[3].cellularNic.rlcMux rlcDelayDl:mean 0.004393437256500027
scalar SingleCell.ue[3].cellularNic.rlcMux sentPacketToLowerLayer:count 877
scalar SingleCell.ue[3].cellularNic.rlcMux sentPacketToLowerLayer:sum(packetBytes) 51034
scalar SingleCell.ue[3].cellularNic.rlcMux receivedPacketFromLowerLayer:count 440
scalar SingleCell.ue[3].cellularNic.rlcMux receivedPacketFromLowerLayer:sum(packetBytes) 26840
scalar SingleCell.ue[3].cellularNic.mac harqTxAttemptsUl:mean 1.0320366132723111
scalar SingleCell.ue[3].cellularNic.mac harqTxAttemptsDl:mean 1.0113636363636365
scalar SingleCell.ue[3].cellularNic.mac harqErrorRate_4th_Ul:mean -nan
scalar SingleCell.ue[3].cellularNic.mac harqErrorRate_4th_Dl:mean -nan
scalar SingleCell.ue[3].cellularNic.mac harqErrorRate_3rd_Ul:mean -nan
scalar SingleCell.ue[3].cellularNic.mac harqErrorRate_3rd_Dl:mean -nan
scalar SingleCell.ue[3].cellularNic.mac harqErrorRate_2nd_Ul:mean 0
scalar SingleCell.ue[3].cellularNic.mac harqErrorRate_2nd_Dl:mean 0
scalar SingleCell.ue[3].cellularNic.mac harqErrorRate_1st_Ul:mean 0.032036613272311214
scalar SingleCell.ue[3].cellularNic.mac harqErrorRate_1st_Dl:mean 0.011363636363636364
scalar SingleCell.ue[3].cellularNic.mac harqErrorRateUl:mean 0.031042128603104215
scalar SingleCell.ue[3].cellularNic.mac harqErrorRateDl:mean 0.011235955056179775
scalar SingleCell.ue[3].cellularNic.mac macCellPacketLossUl:mean -nan
scalar SingleCell.ue[3].cellularNic.mac macCellPacketLossDl:mean -nan
scalar SingleCell.ue[3].cellularNic.mac macPacketLossUl:mean 0
scalar SingleCell.ue[3].cellularNic.mac macPacketLossDl:mean 0
scalar SingleCell.ue[3].cellularNic.mac macThroughputUl:simu5g_rateavg 2993.743347017376
scalar SingleCell.ue[3].cellularNic.mac macThroughputDl:simu5g_rateavg 3117.5277991807334
scalar SingleCell.ue[3].cellularNic.mac macDelayUl:mean 0.0098398169336384299
scalar SingleCell.ue[3].cellularNic.mac macDelayDl:mean 0.0040681818181818215
scalar SingleCell.ue[3].cellularNic.mac macCellThroughputUl:simu5g_rateavg -nan
scalar SingleCell.ue[3].cellularNic.mac macCellThroughputDl:simu5g_rateavg -nan
scalar SingleCell.ue[3].cellularNic.mac sentPacketToLowerLayer:count 1354
scalar SingleCell.ue[3].cellularNic.mac sentPacketToLowerLayer:sum(packetBytes) 28601
scalar SingleCell.ue[3].cellularNic.mac sentPacketToUpperLayer:count 877
scalar SingleCell.ue[3].cellularNic.mac sentPacketToUpperLayer:sum(packetBytes) 27277
scalar SingleCell.ue[3].cellularNic.mac receivedPacketFromLowerLayer:count 1806
scalar SingleCell.ue[3].cellularNic.mac receivedPacketFromLowerLayer:sum(packetBytes) 29396
scalar SingleCell.ue[3].cellularNic.mac receivedPacketFromUpperLayer:count 877
scalar SingleCell.ue[3].cellularNic.mac receivedPacketFromUpperLayer:sum(packetBytes) 51034
scalar SingleCell.ue[3].cellularNic.mac macBufferOverFlowD2D:mean -nan
scalar SingleCell.ue[3].cellularNic.mac macBufferOverFlowUl:mean -nan
scalar SingleCell.ue[3].cellularNic.mac macBufferOverFlowDl:mean -nan
scalar SingleCell.ue[3].cellularNic.phy distance:mean 266.38972781796315
scalar SingleCell.ue[3].cellularNic.phy averageCqiUl:mean 11.96008869179601
scalar SingleCell.ue[3].cellularNic.phy averageCqiUl:count 451
scalar SingleCell.ue[3].cellularNic.phy averageCqiDl:mean 14.350561797752809
scalar SingleCell.ue[3].cellularNic.phy averageCqiDl:count 445
scalar SingleCell.ue[3].cellularNic.channelModel[0] measuredSinrUl:mean 27.137882577494658
scalar SingleCell.ue[3].cellularNic.channelModel[0] measuredSinrDl:mean 39.141237596509043
scalar SingleCell.ue[3].cellularNic.channelModel[0] rcvdSinrD2D:mean -nan
scalar SingleCell.ue[3].cellularNic.channelModel[0] rcvdSinrUl:mean 28.852797589916911
scalar SingleCell.ue[3].cellularNic.channelModel[0] rcvdSinrDl:mean 38.82521912473868
scalar SingleCell.ue[3].cellularNic packetDropInterfaceDown:count 0
scalar SingleCell.ue[3].cellularNic packetDropInterfaceDown:sum(packetBytes) 0
scalar SingleCell.ue[3].cellularNic packetDropNoCarrier:count 0
scalar SingleCell.ue[3].cellularNic packetDropNoCarrier:sum(packetBytes) 0
scalar SingleCell.ue[3].encap pauseSent:count 0
scalar SingleCell.ue[3].encap pauseSent:sum 0
scalar SingleCell.ue[3].encap decapPk:count 0
scalar SingleCell.ue[3].encap decapPk:sum(packetBytes) 0
scalar SingleCell.ue[3].encap encapPk:count 0
scalar SingleCell.ue[3].encap encapPk:sum(packetBytes) 0
scalar SingleCell.ue[3].ipv4.ip packetDropAddressResolutionFailed:count 0
scalar SingleCell.ue[3].ipv4.ip packetDropAddressResolutionFailed:sum(packetBytes) 0
scalar SingleCell.ue[3].ipv4.ip packetDropHopLimitReached:count 0
scalar SingleCell.ue[3].ipv4.ip packetDropHopLimitReached:sum(packetBytes) 0
scalar SingleCell.ue[3].ipv4.ip packetDropForwardingDisabled:count 0
scalar SingleCell.ue[3].ipv4.ip packetDropForwardingDisabled:sum(packetBytes) 0
scalar SingleCell.ue[3].ipv4.ip packetDropNoInterfaceFound:count 0
scalar SingleCell.ue[3].ipv4.ip packetDropNoInterfaceFound:sum(packetBytes) 0
scalar SingleCell.ue[3].ipv4.ip packetDropNoRouteFound:count 0
scalar SingleCell.ue[3].ipv4.ip packetDropNoRouteFound:sum(packetBytes) 0
scalar SingleCell.ue[3].ipv4.ip packetDropUndefined:count 0
scalar SingleCell.ue[3].ipv4.ip packetDropUndefined:sum(packetBytes) 0
scalar SingleCell.ue[3].ipv4.arp arpResolutionFailed:count 0
scalar SingleCell.ue[3].ipv4.arp arpResolutionCompleted:count 0
scalar SingleCell.ue[3].ipv4.arp arpResolutionInitiated:count 0
scalar SingleCell.ue[3].ipv4.arp arpReplySent:count 0
scalar SingleCell.ue[3].ipv4.arp arpReplySent:sum(packetBytes) 0
scalar SingleCell.ue[3].ipv4.arp arpRequestSent:count 0
scalar SingleCell.ue[3].ipv4.arp arpRequestSent:sum(packetBytes) 0
scalar SingleCell.ue[3].udp packetReceived:count 440
scalar SingleCell.ue[3].udp packetReceived:sum(packetBytes) 16720
scalar SingleCell.ue[3].udp packetSent:count 0
scalar SingleCell.ue[3].udp packetSent:sum(packetBytes) 0
scalar SingleCell.ue[3].udp passedUpPk:count 0
scalar SingleCell.ue[3].udp droppedPkWrongPort:count 440
scalar SingleCell.ue[3].udp droppedPkBadChecksum:count 0
scalar SingleCell.ue[4].lo[0].lo rcvdPkFromHl:count 0
scalar SingleCell.ue[4].lo[0].lo rcvdPkFromHl:sum(packetBytes) 0
scalar SingleCell.ue[4].lo[0].lo passedUpPk:count 0
scalar SingleCell.ue[4].lo[0].lo passedUpPk:sum(packetBytes) 0
scalar SingleCell.ue[4].lo[0] packetDropInterfaceDown:count 0
scalar SingleCell.ue[4].lo[0] packetDropInterfaceDown:sum(packetBytes) 0
scalar SingleCell.ue[4].lo[0] packetDropNoCarrier:count 0
scalar SingleCell.ue[4].lo[0] packetDropNoCarrier:sum(packetBytes) 0
scalar SingleCell.ue[4].cellularNic.rlcMux rlcCellThroughputD2D:simu5g_rateavg -nan
scalar SingleCell.ue[4].cellularNic.rlcMux rlcPduThroughputD2D:simu5g_rateavg -nan
scalar SingleCell.ue[4].cellularNic.rlcMux rlcPduDelayD2D:mean -nan
scalar SingleCell.ue[4].cellularNic.rlcMux rlcThroughputD2D:simu5g_rateavg -nan
scalar SingleCell.ue[4].cellularNic.rlcMux rlcDelayD2D:mean -nan
scalar SingleCell.ue[4].cellularNic.rlcMux rlcCellThroughputUl:simu5g_rateavg -nan
scalar SingleCell.ue[4].cellularNic.rlcMux rlcCellThroughputDl:simu5g_rateavg -nan
scalar SingleCell.ue[4].cellularNic.rlcMux rlcPduThroughputUl:simu5g_rateavg 0
scalar SingleCell.ue[4].cellularNic.rlcMux rlcPduThroughputDl:simu5g_rateavg 0
scalar SingleCell.ue[4].cellularNic.rlcMux rlcPduDelayUl:mean 0.004140350877192985
scalar SingleCell.ue[4].cellularNic.rlcMux rlcPduDelayDl:mean 0.0040209790209790241
scalar SingleCell.ue[4].cellularNic.rlcMux rlcThroughputUl:simu5g_rateavg 1524.2538456474517
scalar SingleCell.ue[4].cellularNic.rlcMux rlcThroughputDl:simu5g_rateavg 1614.5158392988631
scalar SingleCell.ue[4].cellularNic.rlcMux rlcDelayUl:mean 0.017894736842105369
scalar SingleCell.ue[4].cellularNic.rlcMux rlcDelayDl:mean 0.0046625189941713312
scalar SingleCell.ue[4].cellularNic.rlcMux sentPacketToLowerLayer:count 572
scalar SingleCell.ue[4].cellularNic.rlcMux sentPacketToLowerLayer:sum(packetBytes) 33176
scalar SingleCell.ue[4].cellularNic.rlcMux receivedPacketFromLowerLayer:count 286
scalar SingleCell.ue[4].cellularNic.rlcMux receivedPacketFromLowerLayer:sum(packetBytes) 17446
scalar SingleCell.ue[4].cellularNic.mac harqTxAttemptsUl:mean 1.0069930069930071
scalar SingleCell.ue[4].cellularNic.mac harqTxAttemptsDl:mean 1.0034965034965035
scalar SingleCell.ue[4].cellularNic.mac harqErrorRate_4th_Ul:mean -nan
scalar SingleCell.ue[4].cellularNic.mac harqErrorRate_4th_Dl:mean -nan
scalar SingleCell.ue[4].cellularNic.mac harqErrorRate_3rd_Ul:mean -nan
scalar SingleCell.ue[4].cellularNic.mac harqErrorRate_3rd_Dl:mean -nan
scalar SingleCell.ue[4].cellularNic.mac harqErrorRate_2nd_Ul:mean 0
scalar SingleCell.ue[4].cellularNic.mac harqErrorRate_2nd_Dl:mean 0
scalar SingleCell.ue[4].cellularNic.mac harqErrorRate_1st_Ul:mean 0.006993006993006993
scalar SingleCell.ue[4].cellularNic.mac harqErrorRate_1st_Dl:mean 0.0034965034965034965
scalar SingleCell.ue[4].cellularNic.mac harqErrorRateUl:mean 0.0069444444444444441
scalar SingleCell.ue[4].cellularNic.mac harqErrorRateDl:mean 0.0034843205574912892
scalar SingleCell.ue[4].cellularNic.mac macCellPacketLossUl:mean -nan
scalar SingleCell.ue[4].cellularNic.mac macCellPacketLossDl:mean -nan
scalar SingleCell.ue[4].cellularNic.mac macPacketLossUl:mean 0
scalar SingleCell.ue[4].cellularNic.mac macPacketLossDl:mean 0
scalar SingleCell.ue[4].cellularNic.mac macThroughputUl:simu5g_rateavg 1652.5055410253308
scalar SingleCell.ue[4].cellularNic.mac macThroughputDl:simu5g_rateavg 1723.9745402682768
scalar SingleCell.ue[4].cellularNic.mac macDelayUl:mean 0.0075524475524475559
scalar SingleCell.ue[4].cellularNic.mac macDelayDl:mean 0.0040209790209790241
scalar SingleCell.ue[4].cellularNic.mac macCellThroughputUl:simu5g_rateavg -nan
scalar SingleCell.ue[4].cellularNic.mac macCellThroughputDl:simu5g_rateavg -nan
scalar SingleCell.ue[4].cellularNic.mac sentPacketToLowerLayer:count 865
scalar SingleCell.ue[4].cellularNic.mac sentPacketToLowerLayer:sum(packetBytes) 18142
scalar SingleCell.ue[4].cellularNic.mac sentPacketToUpperLayer:count 572
scalar SingleCell.ue[4].cellularNic.mac sentPacketToUpperLayer:sum(packetBytes) 17732
scalar SingleCell.ue[4].cellularNic.mac receivedPacketFromLowerLayer:count 1154
scalar SingleCell.ue[4].cellularNic.mac receivedPacketFromLowerLayer:sum(packetBytes) 19010
scalar SingleCell.ue[4].cellularNic.mac receivedPacketFromUpperLayer:count 572
scalar SingleCell.ue[4].cellularNic.mac receivedPacketFromUpperLayer:sum(packetBytes) 33176
scalar SingleCell.ue[4].cellularNic.mac macBufferOverFlowD2D:mean -nan
scalar SingleCell.ue[4].cellularNic.mac macBufferOverFlowUl:mean -nan
scalar SingleCell.ue[4].cellularNic.mac macBufferOverFlowDl:mean -nan
scalar SingleCell.ue[4].cellularNic.phy distance:mean 173.63051287027352
scalar SingleCell.ue[4].cellularNic.phy averageCqiUl:mean 10.041666666666666
scalar SingleCell.ue[4].cellularNic.phy averageCqiUl:count 288
scalar SingleCell.ue[4].cellularNic.phy averageCqiDl:mean 14.913194444444445
scalar SingleCell.ue[4].cellularNic.phy averageCqiDl:count 288
scalar SingleCell.ue[4].cellularNic.channelModel[0] measuredSinrUl:mean 22.608046104743966
scalar SingleCell.ue[4].cellularNic.channelModel[0] measuredSinrDl:mean 53.399104022248117
scalar SingleCell.ue[4].cellularNic.channelModel[0] rcvdSinrD2D:mean -nan
scalar SingleCell.ue[4].cellularNic.channelModel[0] rcvdSinrUl:mean 29.629651021908185
scalar SingleCell.ue[4].cellularNic.channelModel[0] rcvdSinrDl:mean 55.711384545645259
scalar SingleCell.ue[4].cellularNic packetDropInterfaceDown:count 0
scalar SingleCell.ue[4].cellularNic packetDropInterfaceDown:sum(packetBytes) 0
scalar SingleCell.ue[4].cellularNic packetDropNoCarrier:count 0
scalar SingleCell.ue[4].cellularNic packetDropNoCarrier:sum(packetBytes) 0
scalar SingleCell.ue[4].encap pauseSent:count 0
scalar SingleCell.ue[4].encap pauseSent:sum 0
scalar SingleCell.ue[4].encap decapPk:count 0
scalar SingleCell.ue[4].encap decapPk:sum(packetBytes) 0
scalar SingleCell.ue[4].encap encapPk:count 0
scalar SingleCell.ue[4].encap encapPk:sum(packetBytes) 0
scalar SingleCell.ue[4].ipv4.ip packetDropAddressResolutionFailed:count 0
scalar SingleCell.ue[4].ipv4.ip packetDropAddressResolutionFailed:sum(packetBytes) 0
scalar SingleCell.ue[4].ipv4.ip packetDropHopLimitReached:count 0
scalar SingleCell.ue[4].ipv4.ip packetDropHopLimitReached:sum(packetBytes) 0
scalar SingleCell.ue[4].ipv4.ip packetDropForwardingDisabled:count 0
scalar SingleCell.ue[4].ipv4.ip packetDropForwardingDisabled:sum(packetBytes) 0
scalar SingleCell.ue[4].ipv4.ip packetDropNoInterfaceFound:count 0
scalar SingleCell.ue[4].ipv4.ip packetDropNoInterfaceFound:sum(packetBytes) 0
scalar SingleCell.ue[4].ipv4.ip packetDropNoRouteFound:count 0
scalar SingleCell.ue[4].ipv4.ip packetDropNoRouteFound:sum(packetBytes) 0
scalar SingleCell.ue[4].ipv4.ip packetDropUndefined:count 0
scalar SingleCell.ue[4].ipv4.ip packetDropUndefined:sum(packetBytes) 0
scalar SingleCell.ue[4].ipv4.arp arpResolutionFailed:count 0
scalar SingleCell.ue[4].ipv4.arp arpResolutionCompleted:count 0
scalar SingleCell.ue[4].ipv4.arp arpResolutionInitiated:count 0
scalar SingleCell.ue[4].ipv4.arp arpReplySent:count 0
scalar SingleCell.ue[4].ipv4.arp arpReplySent:sum(packetBytes) 0
scalar SingleCell.ue[4].ipv4.arp arpRequestSent:count 0
scalar SingleCell.ue[4].ipv4.arp arpRequestSent:sum(packetBytes) 0
scalar SingleCell.ue[4].udp packetReceived:count 286
scalar SingleCell.ue[4].udp packetReceived:sum(packetBytes) 10868
scalar SingleCell.ue[4].udp packetSent:count 0
scalar SingleCell.ue[4].udp packetSent:sum(packetBytes) 0
scalar SingleCell.ue[4].udp passedUpPk:count 0
scalar SingleCell.ue[4].udp droppedPkWrongPort:count 286
scalar SingleCell.ue[4].udp droppedPkBadChecksum:count 0
scalar SingleCell.ue[5].lo[0].lo rcvdPkFromHl:count 0
scalar SingleCell.ue[5].lo[0].lo rcvdPkFromHl:sum(packetBytes) 0
scalar SingleCell.ue[5].lo[0].lo passedUpPk:count 0
scalar SingleCell.ue[5].lo[0].lo passedUpPk:sum(packetBytes) 0
scalar SingleCell.ue[5].lo[0] packetDropInterfaceDown:count 0
scalar SingleCell.ue[5].lo[0] packetDropInterfaceDown:sum(packetBytes) 0
scalar SingleCell.ue[5].lo[0] packetDropNoCarrier:count 0
scalar SingleCell.ue[5].lo[0] packetDropNoCarrier:sum(packetBytes) 0
scalar SingleCell.ue[5].cellularNic.rlcMux rlcCellThroughputD2D:simu5g_rateavg -nan
scalar SingleCell.ue[5].cellularNic.rlcMux rlcPduThroughputD2D:simu5g_rateavg -nan
scalar SingleCell.ue[5].cellularNic.rlcMux rlcPduDelayD2D:mean -nan
scalar SingleCell.ue[5].cellularNic.rlcMux rlcThroughputD2D:simu5g_rateavg -nan
scalar SingleCell.ue[5].cellularNic.rlcMux rlcDelayD2D:mean -nan
scalar SingleCell.ue[5].cellularNic.rlcMux rlcCellThroughputUl:simu5g_rateavg -nan
scalar SingleCell.ue[5].cellularNic.rlcMux rlcCellThroughputDl:simu5g_rateavg -nan
scalar SingleCell.ue[5].cellularNic.rlcMux rlcPduThroughputUl:simu5g_rateavg 0
scalar SingleCell.ue[5].cellularNic.rlcMux rlcPduThroughputDl:simu5g_rateavg 0
scalar SingleCell.ue[5].cellularNic.rlcMux rlcPduDelayUl:mean 0.0040000000000000027
scalar SingleCell.ue[5].cellularNic.rlcMux rlcPduDelayDl:mean 0.004029126213592236
scalar SingleCell.ue[5].cellularNic.rlcMux rlcThroughputUl:simu5g_rateavg 2588.6585816382321
scalar SingleCell.ue[5].cellularNic.rlcMux rlcThroughputDl:simu5g_rateavg 2698.8326854827137
scalar SingleCell.ue[5].cellularNic.rlcMux rlcDelayUl:mean 0.0093082524271843933
scalar SingleCell.ue[5].cellularNic.rlcMux rlcDelayDl:mean 0.0045462460766868785
scalar SingleCell.ue[5].cellularNic.rlcMux sentPacketToLowerLayer:count 824
scalar SingleCell.ue[5].cellularNic.rlcMux sentPacketToLowerLayer:sum(packetBytes) 47792
scalar SingleCell.ue[5].cellularNic.rlcMux receivedPacketFromLowerLayer:count 412
scalar SingleCell.ue[5].cellularNic.rlcMux receivedPacketFromLowerLayer:sum(packetBytes) 25132
scalar SingleCell.ue[5].cellularNic.mac harqTxAttemptsUl:mean 1
scalar SingleCell.ue[5].cellularNic.mac harqTxAttemptsDl:mean 1.0048543689320388
scalar SingleCell.ue[5].cellularNic.mac harqErrorRate_4th_Ul:mean -nan
scalar SingleCell.ue[5].cellularNic.mac harqErrorRate_4th_Dl:mean -nan
scalar SingleCell.ue[5].cellularNic.mac harqErrorRate_3rd_Ul:mean -nan
scalar SingleCell.ue[5].cellularNic.mac harqErrorRate_3rd_Dl:mean -nan
scalar SingleCell.ue[5].cellularNic.mac harqErrorRate_2nd_Ul:mean -nan
scalar SingleCell.ue[5].cellularNic.mac harqErrorRate_2nd_Dl:mean 0
scalar SingleCell.ue[5].cellularNic.mac harqErrorRate_1st_Ul:mean 0
scalar SingleCell.ue[5].cellularNic.mac harqErrorRate_1st_Dl:mean 0.0048543689320388345
scalar SingleCell.ue[5].cellularNic.mac harqErrorRateUl:mean 0
scalar SingleCell.ue[5].cellularNic.mac harqErrorRateDl:mean 0.004830917874396135
scalar SingleCell.ue[5].cellularNic.mac macCellPacketLossUl:mean -nan
scalar SingleCell.ue[5].cellularNic.mac macCellPacketLossDl:mean -nan
scalar SingleCell.ue[5].cellularNic.mac macPacketLossUl:mean 0
scalar SingleCell.ue[5].cellularNic.mac macPacketLossDl:mean 0
scalar SingleCell.ue[5].cellularNic.mac macThroughputUl:simu5g_rateavg 2770.4062403275716
scalar SingleCell.ue[5].cellularNic.mac macThroughputDl:simu5g_rateavg 2881.8043929730661
scalar SingleCell.ue[5].cellularNic.mac macDelayUl:mean 0.0040000000000000027
scalar SingleCell.ue[5].cellularNic.mac macDelayDl:mean 0.004029126213592236
scalar SingleCell.ue[5].cellularNic.mac macCellThroughputUl:simu5g_rateavg -nan
scalar SingleCell.ue[5].cellularNic.mac macCellThroughputDl:simu5g_rateavg -nan
scalar SingleCell.ue[5].cellularNic.mac sentPacketToLowerLayer:count 1245
scalar SingleCell.ue[5].cellularNic.mac sentPacketToLowerLayer:sum(packetBytes) 25965
scalar SingleCell.ue[5].cellularNic.mac sentPacketToUpperLayer:count 824
scalar SingleCell.ue[5].cellularNic.mac sentPacketToUpperLayer:sum(packetBytes) 25544
scalar SingleCell.ue[5].cellularNic.mac receivedPacketFromLowerLayer:count 1657
scalar SingleCell.ue[5].cellularNic.mac receivedPacketFromLowerLayer:sum(packetBytes) 27325
scalar SingleCell.ue[5].cellularNic.mac receivedPacketFromUpperLayer:count 824
scalar SingleCell.ue[5].cellularNic.mac receivedPacketFromUpperLayer:sum(packetBytes) 47792
scalar SingleCell.ue[5].cellularNic.mac macBufferOverFlowD2D:mean -nan
scalar SingleCell.ue[5].cellularNic.mac macBufferOverFlowUl:mean -nan
scalar SingleCell.ue[5].cellularNic.mac macBufferOverFlowDl:mean -nan
scalar SingleCell.ue[5].cellularNic.phy distance:mean 129.51243693757763
scalar SingleCell.ue[5].cellularNic.phy averageCqiUl:mean 14.116504854368932
scalar SingleCell.ue[5].cellularNic.phy averageCqiUl:count 412
scalar SingleCell.ue[5].cellularNic.phy averageCqiDl:mean 14.987922705314009
scalar SingleCell.ue[5].cellularNic.phy averageCqiDl:count 414
scalar SingleCell.ue[5].cellularNic.channelModel[0] measuredSinrUl:mean 38.229926712128552
scalar SingleCell.ue[5].cellularNic.channelModel[0] measuredSinrDl:mean 50.712956558519963
scalar SingleCell.ue[5].cellularNic.channelModel[0] rcvdSinrD2D:mean -nan
scalar SingleCell.ue[5].cellularNic.channelModel[0] rcvdSinrUl:mean 39.371681001705177
scalar SingleCell.ue[5].cellularNic.channelModel[0] rcvdSinrDl:mean 50.861811701047316
scalar SingleCell.ue[5].cellularNic packetDropInterfaceDown:count 0
scalar SingleCell.ue[5].cellularNic packetDropInterfaceDown:sum(packetBytes) 0
scalar SingleCell.ue[5].cellularNic packetDropNoCarrier:count 0
scalar SingleCell.ue[5].cellularNic packetDropNoCarrier:sum(packetBytes) 0
scalar SingleCell.ue[5].encap pauseSent:count 0
scalar SingleCell.ue[5].encap pauseSent:sum 0
scalar SingleCell.ue[5].encap decapPk:count 0
scalar SingleCell.ue[5].encap decapPk:sum(packetBytes) 0
scalar SingleCell.ue[5].encap encapPk:count 0
scalar SingleCell.ue[5].encap encapPk:sum(packetBytes) 0
scalar SingleCell.ue[5].ipv4.ip packetDropAddressResolutionFailed:count 0
scalar SingleCell.ue[5].ipv4.ip packetDropAddressResolutionFailed:sum(packetBytes) 0
scalar SingleCell.ue[5].ipv4.ip packetDropHopLimitReached:count 0
scalar SingleCell.ue[5].ipv4.ip packetDropHopLimitReached:sum(packetBytes) 0
scalar SingleCell.ue[5].ipv4.ip packetDropForwardingDisabled:count 0
scalar SingleCell.ue[5].ipv4.ip packetDropForwardingDisabled:sum(packetBytes) 0
scalar SingleCell.ue[5].ipv4.ip packetDropNoInterfaceFound:count 0
scalar SingleCell.ue[5].ipv4.ip packetDropNoInterfaceFound:sum(packetBytes) 0
scalar SingleCell.ue[5].ipv4.ip packetDropNoRouteFound:count 0
scalar SingleCell.ue[5].ipv4.ip packetDropNoRouteFound:sum(packetBytes) 0
scalar SingleCell.ue[5].ipv4.ip packetDropUndefined:count 0
scalar SingleCell.ue[5].ipv4.ip packetDropUndefined:sum(packetBytes) 0
scalar SingleCell.ue[5].ipv4.arp arpResolutionFailed:count 0
scalar SingleCell.ue[5].ipv4.arp arpResolutionCompleted:count 0
scalar SingleCell.ue[5].ipv4.arp arpResolutionInitiated:count 0
scalar SingleCell.ue[5].ipv4.arp arpReplySent:count 0
scalar SingleCell.ue[5].ipv4.arp arpReplySent:sum(packetBytes) 0
scalar SingleCell.ue[5].ipv4.arp arpRequestSent:count 0
scalar SingleCell.ue[5].ipv4.arp arpRequestSent:sum(packetBytes) 0
scalar SingleCell.ue[5].udp packetReceived:count 412
scalar SingleCell.ue[5].udp packetReceived:sum(packetBytes) 15656
scalar SingleCell.ue[5].udp packetSent:count 0
scalar SingleCell.ue[5].udp packetSent:sum(packetBytes) 0
scalar SingleCell.ue[5].udp passedUpPk:count 0
scalar SingleCell.ue[5].udp droppedPkWrongPort:count 412
scalar SingleCell.ue[5].udp droppedPkBadChecksum:count 0
scalar SingleCell.ue[6].lo[0].lo rcvdPkFromHl:count 0
scalar SingleCell.ue[6].lo[0].lo rcvdPkFromHl:sum(packetBytes) 0
scalar SingleCell.ue[6].lo[0].lo passedUpPk:count 0
scalar SingleCell.ue[6].lo[0].lo passedUpPk:sum(packetBytes) 0
scalar SingleCell.ue[6].lo[0] packetDropInterfaceDown:count 0
scalar SingleCell.ue[6].lo[0] packetDropInterfaceDown:sum(packetBytes) 0
scalar SingleCell.ue[6].lo[0] packetDropNoCarrier:count 0
scalar SingleCell.ue[6].lo[0] packetDropNoCarrier:sum(packetBytes) 0
scalar SingleCell.ue[6].cellularNic.rlcMux rlcCellThroughputD2D:simu5g_rateavg -nan
scalar SingleCell.ue[6].cellularNic.rlcMux rlcPduThroughputD2D:simu5g_rateavg -nan
scalar SingleCell.ue[6].cellularNic.rlcMux rlcPduDelayD2D:mean -nan
scalar SingleCell.ue[6].cellularNic.rlcMux rlcThroughputD2D:simu5g_rateavg -nan
[...]
scalar SingleCell.ue[49].cellularNic.mac sentPacketToUpperLayer:vector(packetBytes):sumweights 0
scalar SingleCell.ue[49].cellularNic.mac sentPacketToUpperLayer:vector(packetBytes):mean -nan
scalar SingleCell.ue[49].cellularNic.mac sentPacketToUpperLayer:vector(packetBytes):stddev nan
scalar SingleCell.ue[49].cellularNic.mac sentPacketToUpperLayer:vector(packetBytes):min inf
scalar SingleCell.ue[49].cellularNic.mac sentPacketToUpperLayer:vector(packetBytes):max -inf
scalar SingleCell.ue[49].cellularNic.mac sentPacketToUpperLayer:vector(packetBytes):starttime nan
scalar SingleCell.ue[49].cellularNic.mac sentPacketToUpperLayer:vector(packetBytes):endtime nan
scalar SingleCell.ue[49].cellularNic.mac sentPacketToLowerLayer:vector(packetBytes):count 0
scalar SingleCell.ue[49].cellularNic.mac sentPacketToLowerLayer:vector(packetBytes):sum 0
scalar SingleCell.ue[49].cellularNic.mac sentPacketToLowerLayer:vector(packetBytes):sumweights 0
scalar SingleCell.ue[49].cellularNic.mac sentPacketToLowerLayer:vector(packetBytes):mean -nan
scalar SingleCell.ue[49].cellularNic.mac sentPacketToLowerLayer:vector(packetBytes):stddev nan
scalar SingleCell.ue[49].cellularNic.mac sentPacketToLowerLayer:vector(packetBytes):min inf
scalar SingleCell.ue[49].cellularNic.mac sentPacketToLowerLayer:vector(packetBytes):max -inf
scalar SingleCell.ue[49].cellularNic.mac sentPacketToLowerLayer:vector(packetBytes):starttime nan
scalar SingleCell.ue[49].cellularNic.mac sentPacketToLowerLayer:vector(packetBytes):endtime nan
scalar SingleCell.ue[49].cellularNic.phy distance:vector:count 0
scalar SingleCell.ue[49].cellularNic.phy distance:vector:sum 0
scalar SingleCell.ue[49].cellularNic.phy distance:vector:sumweights 0
scalar SingleCell.ue[49].cellularNic.phy distance:vector:mean -nan
scalar SingleCell.ue[49].cellularNic.phy distance:vector:stddev nan
scalar SingleCell.ue[49].cellularNic.phy distance:vector:min inf
scalar SingleCell.ue[49].cellularNic.phy distance:vector:max -inf
scalar SingleCell.ue[49].cellularNic.phy distance:vector:starttime nan
scalar SingleCell.ue[49].cellularNic.phy distance:vector:endtime nan
scalar SingleCell.ue[49].cellularNic.phy averageCqiDl:vector:count 0
scalar SingleCell.ue[49].cellularNic.phy averageCqiDl:vector:sum 0
scalar SingleCell.ue[49].cellularNic.phy averageCqiDl:vector:sumweights 0
scalar SingleCell.ue[49].cellularNic.phy averageCqiDl:vector:mean -nan
scalar SingleCell.ue[49].cellularNic.phy averageCqiDl:vector:stddev nan
scalar SingleCell.ue[49].cellularNic.phy averageCqiDl:vector:min inf
scalar SingleCell.ue[49].cellularNic.phy averageCqiDl:vector:max -inf
scalar SingleCell.ue[49].cellularNic.phy averageCqiDl:vector:starttime nan
scalar SingleCell.ue[49].cellularNic.phy averageCqiDl:vector:endtime nan
scalar SingleCell.ue[49].cellularNic.phy averageCqiUl:vector:count 0
scalar SingleCell.ue[49].cellularNic.phy averageCqiUl:vector:sum 0
scalar SingleCell.ue[49].cellularNic.phy averageCqiUl:vector:sumweights 0
scalar SingleCell.ue[49].cellularNic.phy averageCqiUl:vector:mean -nan
scalar SingleCell.ue[49].cellularNic.phy averageCqiUl:vector:stddev nan
scalar SingleCell.ue[49].cellularNic.phy averageCqiUl:vector:min inf
scalar SingleCell.ue[49].cellularNic.phy averageCqiUl:vector:max -inf
scalar SingleCell.ue[49].cellularNic.phy averageCqiUl:vector:starttime nan
scalar SingleCell.ue[49].cellularNic.phy averageCqiUl:vector:endtime nan
scalar SingleCell.ue[49].cellularNic.channelModel[0] rcvdSinrDl:vector:count 0
scalar SingleCell.ue[49].cellularNic.channelModel[0] rcvdSinrDl:vector:sum 0
scalar SingleCell.ue[49].cellularNic.channelModel[0] rcvdSinrDl:vector:sumweights 0
scalar SingleCell.ue[49].cellularNic.channelModel[0] rcvdSinrDl:vector:mean -nan
scalar SingleCell.ue[49].cellularNic.channelModel[0] rcvdSinrDl:vector:stddev nan
scalar SingleCell.ue[49].cellularNic.channelModel[0] rcvdSinrDl:vector:min inf
scalar SingleCell.ue[49].cellularNic.channelModel[0] rcvdSinrDl:vector:max -inf
scalar SingleCell.ue[49].cellularNic.channelModel[0] rcvdSinrDl:vector:starttime nan
scalar SingleCell.ue[49].cellularNic.channelModel[0] rcvdSinrDl:vector:endtime nan
scalar SingleCell.ue[49].cellularNic.channelModel[0] rcvdSinrUl:vector:count 0
scalar SingleCell.ue[49].cellularNic.channelModel[0] rcvdSinrUl:vector:sum 0
scalar SingleCell.ue[49].cellularNic.channelModel[0] rcvdSinrUl:vector:sumweights 0
scalar SingleCell.ue[49].cellularNic.channelModel[0] rcvdSinrUl:vector:mean -nan
scalar SingleCell.ue[49].cellularNic.channelModel[0] rcvdSinrUl:vector:stddev nan
scalar SingleCell.ue[49].cellularNic.channelModel[0] rcvdSinrUl:vector:min inf
scalar SingleCell.ue[49].cellularNic.channelModel[0] rcvdSinrUl:vector:max -inf
scalar SingleCell.ue[49].cellularNic.channelModel[0] rcvdSinrUl:vector:starttime nan
scalar SingleCell.ue[49].cellularNic.channelModel[0] rcvdSinrUl:vector:endtime nan
scalar SingleCell.ue[49].cellularNic.channelModel[0] rcvdSinrD2D:vector:count 0
scalar SingleCell.ue[49].cellularNic.channelModel[0] rcvdSinrD2D:vector:sum 0
scalar SingleCell.ue[49].cellularNic.channelModel[0] rcvdSinrD2D:vector:sumweights 0
scalar SingleCell.ue[49].cellularNic.channelModel[0] rcvdSinrD2D:vector:mean -nan
scalar SingleCell.ue[49].cellularNic.channelModel[0] rcvdSinrD2D:vector:stddev nan
scalar SingleCell.ue[49].cellularNic.channelModel[0] rcvdSinrD2D:vector:min inf
scalar SingleCell.ue[49].cellularNic.channelModel[0] rcvdSinrD2D:vector:max -inf
scalar SingleCell.ue[49].cellularNic.channelModel[0] rcvdSinrD2D:vector:starttime nan
scalar SingleCell.ue[49].cellularNic.channelModel[0] rcvdSinrD2D:vector:endtime nan
scalar SingleCell.ue[49].cellularNic.channelModel[0] measuredSinrDl:vector:count 0
scalar SingleCell.ue[49].cellularNic.channelModel[0] measuredSinrDl:vector:sum 0
scalar SingleCell.ue[49].cellularNic.channelModel[0] measuredSinrDl:vector:sumweights 0
scalar SingleCell.ue[49].cellularNic.channelModel[0] measuredSinrDl:vector:mean -nan
scalar SingleCell.ue[49].cellularNic.channelModel[0] measuredSinrDl:vector:stddev nan
scalar SingleCell.ue[49].cellularNic.channelModel[0] measuredSinrDl:vector:min inf
scalar SingleCell.ue[49].cellularNic.channelModel[0] measuredSinrDl:vector:max -inf
scalar SingleCell.ue[49].cellularNic.channelModel[0] measuredSinrDl:vector:starttime nan
scalar SingleCell.ue[49].cellularNic.channelModel[0] measuredSinrDl:vector:endtime nan
scalar SingleCell.ue[49].cellularNic.channelModel[0] measuredSinrUl:vector:count 0
scalar SingleCell.ue[49].cellularNic.channelModel[0] measuredSinrUl:vector:sum 0
scalar SingleCell.ue[49].cellularNic.channelModel[0] measuredSinrUl:vector:sumweights 0
scalar SingleCell.ue[49].cellularNic.channelModel[0] measuredSinrUl:vector:mean -nan
scalar SingleCell.ue[49].cellularNic.channelModel[0] measuredSinrUl:vector:stddev nan
scalar SingleCell.ue[49].cellularNic.channelModel[0] measuredSinrUl:vector:min inf
scalar SingleCell.ue[49].cellularNic.channelModel[0] measuredSinrUl:vector:max -inf
scalar SingleCell.ue[49].cellularNic.channelModel[0] measuredSinrUl:vector:starttime nan
scalar SingleCell.ue[49].cellularNic.channelModel[0] measuredSinrUl:vector:endtime nan
scalar SingleCell.ue[49].cellularNic packetDropInterfaceDown:vector(packetBytes):count 0
scalar SingleCell.ue[49].cellularNic packetDropInterfaceDown:vector(packetBytes):sum 0
scalar SingleCell.ue[49].cellularNic packetDropInterfaceDown:vector(packetBytes):sumweights 0
scalar SingleCell.ue[49].cellularNic packetDropInterfaceDown:vector(packetBytes):mean -nan
scalar SingleCell.ue[49].cellularNic packetDropInterfaceDown:vector(packetBytes):stddev nan
scalar SingleCell.ue[49].cellularNic packetDropInterfaceDown:vector(packetBytes):min inf
scalar SingleCell.ue[49].cellularNic packetDropInterfaceDown:vector(packetBytes):max -inf
scalar SingleCell.ue[49].cellularNic packetDropInterfaceDown:vector(packetBytes):starttime nan
scalar SingleCell.ue[49].cellularNic packetDropInterfaceDown:vector(packetBytes):endtime nan
scalar SingleCell.ue[49].cellularNic packetDropNoCarrier:vector(packetBytes):count 0
scalar SingleCell.ue[49].cellularNic packetDropNoCarrier:vector(packetBytes):sum 0
scalar SingleCell.ue[49].cellularNic packetDropNoCarrier:vector(packetBytes):sumweights 0
scalar SingleCell.ue[49].cellularNic packetDropNoCarrier:vector(packetBytes):mean -nan
scalar SingleCell.ue[49].cellularNic packetDropNoCarrier:vector(packetBytes):stddev nan
scalar SingleCell.ue[49].cellularNic packetDropNoCarrier:vector(packetBytes):min inf
scalar SingleCell.ue[49].cellularNic packetDropNoCarrier:vector(packetBytes):max -inf
scalar SingleCell.ue[49].cellularNic packetDropNoCarrier:vector(packetBytes):starttime nan
scalar SingleCell.ue[49].cellularNic packetDropNoCarrier:vector(packetBytes):endtime nan
scalar SingleCell.ue[49].encap encapPk:vector(packetBytes):count 0
scalar SingleCell.ue[49].encap encapPk:vector(packetBytes):sum 0
scalar SingleCell.ue[49].encap encapPk:vector(packetBytes):sumweights 0
scalar SingleCell.ue[49].encap encapPk:vector(packetBytes):mean -nan
scalar SingleCell.ue[49].encap encapPk:vector(packetBytes):stddev nan
scalar SingleCell.ue[49].encap encapPk:vector(packetBytes):min inf
scalar SingleCell.ue[49].encap encapPk:vector(packetBytes):max -inf
scalar SingleCell.ue[49].encap encapPk:vector(packetBytes):starttime nan
scalar SingleCell.ue[49].encap encapPk:vector(packetBytes):endtime nan
scalar SingleCell.ue[49].encap decapPk:vector(packetBytes):count 0
scalar SingleCell.ue[49].encap decapPk:vector(packetBytes):sum 0
scalar SingleCell.ue[49].encap decapPk:vector(packetBytes):sumweights 0
scalar SingleCell.ue[49].encap decapPk:vector(packetBytes):mean -nan
scalar SingleCell.ue[49].encap decapPk:vector(packetBytes):stddev nan
scalar SingleCell.ue[49].encap decapPk:vector(packetBytes):min inf
scalar SingleCell.ue[49].encap decapPk:vector(packetBytes):max -inf
scalar SingleCell.ue[49].encap decapPk:vector(packetBytes):starttime nan
scalar SingleCell.ue[49].encap decapPk:vector(packetBytes):endtime nan
scalar SingleCell.ue[49].encap pauseSent:vector:count 0
scalar SingleCell.ue[49].encap pauseSent:vector:sum 0
scalar SingleCell.ue[49].encap pauseSent:vector:sumweights 0
scalar SingleCell.ue[49].encap pauseSent:vector:mean -nan
scalar SingleCell.ue[49].encap pauseSent:vector:stddev nan
scalar SingleCell.ue[49].encap pauseSent:vector:min inf
scalar SingleCell.ue[49].encap pauseSent:vector:max -inf
scalar SingleCell.ue[49].encap pauseSent:vector:starttime nan
scalar SingleCell.ue[49].encap pauseSent:vector:endtime nan
scalar SingleCell.ue[49].ipv4.ip packetDropAddressResolutionFailed:vector(packetBytes):count 0
scalar SingleCell.ue[49].ipv4.ip packetDropAddressResolutionFailed:vector(packetBytes):sum 0
scalar SingleCell.ue[49].ipv4.ip packetDropAddressResolutionFailed:vector(packetBytes):sumweights 0
scalar SingleCell.ue[49].ipv4.ip packetDropAddressResolutionFailed:vector(packetBytes):mean -nan
scalar SingleCell.ue[49].ipv4.ip packetDropAddressResolutionFailed:vector(packetBytes):stddev nan
scalar SingleCell.ue[49].ipv4.ip packetDropAddressResolutionFailed:vector(packetBytes):min inf
scalar SingleCell.ue[49].ipv4.ip packetDropAddressResolutionFailed:vector(packetBytes):max -inf
scalar SingleCell.ue[49].ipv4.ip packetDropAddressResolutionFailed:vector(packetBytes):starttime nan
scalar SingleCell.ue[49].ipv4.ip packetDropAddressResolutionFailed:vector(packetBytes):endtime nan
scalar SingleCell.ue[49].ipv4.ip packetDropHopLimitReached:vector(packetBytes):count 0
scalar SingleCell.ue[49].ipv4.ip packetDropHopLimitReached:vector(packetBytes):sum 0
scalar SingleCell.ue[49].ipv4.ip packetDropHopLimitReached:vector(packetBytes):sumweights 0
scalar SingleCell.ue[49].ipv4.ip packetDropHopLimitReached:vector(packetBytes):mean -nan
scalar SingleCell.ue[49].ipv4.ip packetDropHopLimitReached:vector(packetBytes):stddev nan
scalar SingleCell.ue[49].ipv4.ip packetDropHopLimitReached:vector(packetBytes):min inf
scalar SingleCell.ue[49].ipv4.ip packetDropHopLimitReached:vector(packetBytes):max -inf
scalar SingleCell.ue[49].ipv4.ip packetDropHopLimitReached:vector(packetBytes):starttime nan
scalar SingleCell.ue[49].ipv4.ip packetDropHopLimitReached:vector(packetBytes):endtime nan
scalar SingleCell.ue[49].ipv4.ip packetDropForwardingDisabled:vector(packetBytes):count 0
scalar SingleCell.ue[49].ipv4.ip packetDropForwardingDisabled:vector(packetBytes):sum 0
scalar SingleCell.ue[49].ipv4.ip packetDropForwardingDisabled:vector(packetBytes):sumweights 0
scalar SingleCell.ue[49].ipv4.ip packetDropForwardingDisabled:vector(packetBytes):mean -nan
scalar SingleCell.ue[49].ipv4.ip packetDropForwardingDisabled:vector(packetBytes):stddev nan
scalar SingleCell.ue[49].ipv4.ip packetDropForwardingDisabled:vector(packetBytes):min inf
scalar SingleCell.ue[49].ipv4.ip packetDropForwardingDisabled:vector(packetBytes):max -inf
scalar SingleCell.ue[49].ipv4.ip packetDropForwardingDisabled:vector(packetBytes):starttime nan
scalar SingleCell.ue[49].ipv4.ip packetDropForwardingDisabled:vector(packetBytes):endtime nan
scalar SingleCell.ue[49].ipv4.ip packetDropNoInterfaceFound:vector(packetBytes):count 0
scalar SingleCell.ue[49].ipv4.ip packetDropNoInterfaceFound:vector(packetBytes):sum 0
scalar SingleCell.ue[49].ipv4.ip packetDropNoInterfaceFound:vector(packetBytes):sumweights 0
scalar SingleCell.ue[49].ipv4.ip packetDropNoInterfaceFound:vector(packetBytes):mean -nan
scalar SingleCell.ue[49].ipv4.ip packetDropNoInterfaceFound:vector(packetBytes):stddev nan
scalar SingleCell.ue[49].ipv4.ip packetDropNoInterfaceFound:vector(packetBytes):min inf
scalar SingleCell.ue[49].ipv4.ip packetDropNoInterfaceFound:vector(packetBytes):max -inf
scalar SingleCell.ue[49].ipv4.ip packetDropNoInterfaceFound:vector(packetBytes):starttime nan
scalar SingleCell.ue[49].ipv4.ip packetDropNoInterfaceFound:vector(packetBytes):endtime nan
scalar SingleCell.ue[49].ipv4.ip packetDropNoRouteFound:vector(packetBytes):count 0
scalar SingleCell.ue[49].ipv4.ip packetDropNoRouteFound:vector(packetBytes):sum 0
scalar SingleCell.ue[49].ipv4.ip packetDropNoRouteFound:vector(packetBytes):sumweights 0
scalar SingleCell.ue[49].ipv4.ip packetDropNoRouteFound:vector(packetBytes):mean -nan
scalar SingleCell.ue[49].ipv4.ip packetDropNoRouteFound:vector(packetBytes):stddev nan
scalar SingleCell.ue[49].ipv4.ip packetDropNoRouteFound:vector(packetBytes):min inf
scalar SingleCell.ue[49].ipv4.ip packetDropNoRouteFound:vector(packetBytes):max -inf
scalar SingleCell.ue[49].ipv4.ip packetDropNoRouteFound:vector(packetBytes):starttime nan
scalar SingleCell.ue[49].ipv4.ip packetDropNoRouteFound:vector(packetBytes):endtime nan
scalar SingleCell.ue[49].ipv4.ip packetDropUndefined:vector(packetBytes):count 0
scalar SingleCell.ue[49].ipv4.ip packetDropUndefined:vector(packetBytes):sum 0
scalar SingleCell.ue[49].ipv4.ip packetDropUndefined:vector(packetBytes):sumweights 0
scalar SingleCell.ue[49].ipv4.ip packetDropUndefined:vector(packetBytes):mean -nan
scalar SingleCell.ue[49].ipv4.ip packetDropUndefined:vector(packetBytes):stddev nan
scalar SingleCell.ue[49].ipv4.ip packetDropUndefined:vector(packetBytes):min inf
scalar SingleCell.ue[49].ipv4.ip packetDropUndefined:vector(packetBytes):max -inf
scalar SingleCell.ue[49].ipv4.ip packetDropUndefined:vector(packetBytes):starttime nan
scalar SingleCell.ue[49].ipv4.ip packetDropUndefined:vector(packetBytes):endtime nan
scalar SingleCell.ue[49].ipv4.arp arpRequestSent:vector(packetBytes):count 0
scalar SingleCell.ue[49].ipv4.arp arpRequestSent:vector(packetBytes):sum 0
scalar SingleCell.ue[49].ipv4.arp arpRequestSent:vector(packetBytes):sumweights 0
scalar SingleCell.ue[49].ipv4.arp arpRequestSent:vector(packetBytes):mean -nan
scalar SingleCell.ue[49].ipv4.arp arpRequestSent:vector(packetBytes):stddev nan
scalar SingleCell.ue[49].ipv4.arp arpRequestSent:vector(packetBytes):min inf
scalar SingleCell.ue[49].ipv4.arp arpRequestSent:vector(packetBytes):max -inf
scalar SingleCell.ue[49].ipv4.arp arpRequestSent:vector(packetBytes):starttime nan
scalar SingleCell.ue[49].ipv4.arp arpRequestSent:vector(packetBytes):endtime nan
scalar SingleCell.ue[49].ipv4.arp arpReplySent:vector(packetBytes):count 0
scalar SingleCell.ue[49].ipv4.arp arpReplySent:vector(packetBytes):sum 0
scalar SingleCell.ue[49].ipv4.arp arpReplySent:vector(packetBytes):sumweights 0
scalar SingleCell.ue[49].ipv4.arp arpReplySent:vector(packetBytes):mean -nan
scalar SingleCell.ue[49].ipv4.arp arpReplySent:vector(packetBytes):stddev nan
scalar SingleCell.ue[49].ipv4.arp arpReplySent:vector(packetBytes):min inf
scalar SingleCell.ue[49].ipv4.arp arpReplySent:vector(packetBytes):max -inf
scalar SingleCell.ue[49].ipv4.arp arpReplySent:vector(packetBytes):starttime nan
scalar SingleCell.ue[49].ipv4.arp arpReplySent:vector(packetBytes):endtime nan
scalar SingleCell.ue[49].udp packetSent:vector(packetBytes):count 0
scalar SingleCell.ue[49].udp packetSent:vector(packetBytes):sum 0
scalar SingleCell.ue[49].udp packetSent:vector(packetBytes):sumweights 0
scalar SingleCell.ue[49].udp packetSent:vector(packetBytes):mean -nan
scalar SingleCell.ue[49].udp packetSent:vector(packetBytes):stddev nan
scalar SingleCell.ue[49].udp packetSent:vector(packetBytes):min inf
scalar SingleCell.ue[49].udp packetSent:vector(packetBytes):max -inf
scalar SingleCell.ue[49].udp packetSent:vector(packetBytes):starttime nan
scalar SingleCell.ue[49].udp packetSent:vector(packetBytes):endtime nan
scalar SingleCell.ue[49].udp packetReceived:vector(packetBytes):count 0
scalar SingleCell.ue[49].udp packetReceived:vector(packetBytes):sum 0
scalar SingleCell.ue[49].udp packetReceived:vector(packetBytes):sumweights 0
scalar SingleCell.ue[49].udp packetReceived:vector(packetBytes):mean -nan
scalar SingleCell.ue[49].udp packetReceived:vector(packetBytes):stddev nan
scalar SingleCell.ue[49].udp packetReceived:vector(packetBytes):min inf
scalar SingleCell.ue[49].udp packetReceived:vector(packetBytes):max -inf
scalar SingleCell.ue[49].udp packetReceived:vector(packetBytes):starttime nan
scalar SingleCell.ue[49].udp packetReceived:vector(packetBytes):endtime nan
scalar SingleCell.ue[49].udp passedUpPk:vector(count):count 0
scalar SingleCell.ue[49].udp passedUpPk:vector(count):sum 0
scalar SingleCell.ue[49].udp passedUpPk:vector(count):sumweights 0
scalar SingleCell.ue[49].udp passedUpPk:vector(count):mean -nan
scalar SingleCell.ue[49].udp passedUpPk:vector(count):stddev nan
scalar SingleCell.ue[49].udp passedUpPk:vector(count):min inf
scalar SingleCell.ue[49].udp passedUpPk:vector(count):max -inf
scalar SingleCell.ue[49].udp passedUpPk:vector(count):starttime nan
scalar SingleCell.ue[49].udp passedUpPk:vector(count):endtime nan
scalar SingleCell.ue[49].udp droppedPkWrongPort:vector(count):count 0
scalar SingleCell.ue[49].udp droppedPkWrongPort:vector(count):sum 0
scalar SingleCell.ue[49].udp droppedPkWrongPort:vector(count):sumweights 0
scalar SingleCell.ue[49].udp droppedPkWrongPort:vector(count):mean -nan
scalar SingleCell.ue[49].udp droppedPkWrongPort:vector(count):stddev nan
scalar SingleCell.ue[49].udp droppedPkWrongPort:vector(count):min inf
scalar SingleCell.ue[49].udp droppedPkWrongPort:vector(count):max -inf
scalar SingleCell.ue[49].udp droppedPkWrongPort:vector(count):starttime nan
scalar SingleCell.ue[49].udp droppedPkWrongPort:vector(count):endtime nan
scalar SingleCell.ue[49].udp droppedPkBadChecksum:vector(count):count 0
scalar SingleCell.ue[49].udp droppedPkBadChecksum:vector(count):sum 0
scalar SingleCell.ue[49].udp droppedPkBadChecksum:vector(count):sumweights 0
scalar SingleCell.ue[49].udp droppedPkBadChecksum:vector(count):mean -nan
scalar SingleCell.ue[49].udp droppedPkBadChecksum:vector(count):stddev nan
scalar SingleCell.ue[49].udp droppedPkBadChecksum:vector(count):min inf
scalar SingleCell.ue[49].udp droppedPkBadChecksum:vector(count):max -inf
scalar SingleCell.ue[49].udp droppedPkBadChecksum:vector(count):starttime nan
scalar SingleCell.ue[49].udp droppedPkBadChecksum:vector(count):endtime nan

