version 3
run VoIP-DL-0-20260709-21:29:40-650696
attr configname VoIP-DL
attr datetime 20260709-21:29:40
attr datetimef 20260709-212940
attr experiment VoIP-DL
attr inifile omnetpp.ini
attr iterationvars $numUEs=5
attr iterationvarsd numUEs=5
attr iterationvarsf numUEs=5-
attr measurement $numUEs=5
attr network simu5g.simulations.lte.networks.SingleCell
attr processid 650696
attr repetition 0
attr replication #0
attr resultdir results
attr runnumber 0
attr seedset 0
itervar numUEs 5
config **.param-recording false
config image-path /home/andras/projects/Simu5G-fork/simu5g-fork/images
config output-scalar-file results/omnetpp.ini-VoIP-DL-#0.sca
config output-scalar-precision 17
config output-vector-file results/omnetpp.ini-VoIP-DL-#0.vec
config output-vector-precision 17
config record-eventlog false
config sim-time-limit 20s
config network simu5g.simulations.lte.networks.SingleCell
config sim-time-limit 20s
config *.configurator.dumpAddresses true
config **.mac.schedulingDisciplineDl "\"MAXCI\""
config **.mac.schedulingDisciplineUl "\"MAXCI\""
config *.ue[*].numApps 1
config *.numUe 5
config **.vector-recording true
config *.server.numApps 5
config **.ue[*].macCellId 1
config **.ue[*].masterId 1
config *.ue[*].mobility.initialMovementHeading "uniform(0deg, 360deg)"
config *.ue[*].mobility.constraintAreaMaxX 1000m
config *.ue[*].mobility.constraintAreaMaxY 1000m
config *.ue[*].mobility.constraintAreaMinX 0m
config *.ue[*].mobility.constraintAreaMinY 0m
config *.ue[*].mobility.initFromDisplayString false
config *.ue[*].mobility.initialX uniform(0m,600m)
config *.ue[*].mobility.initialY uniform(0m,600m)
config *.eNB.mobility.initialX 300m
config *.eNB.mobility.initialY 300m
config *.ue[*].mobility.initialZ 0m
config *.ue[*].mobility.speed 1mps
config *.ue[*].mobility.typename LinearMobility
config *.ue[*].app[0].typename VoipReceiver
config *.ue[*].app[0].localPort 3000
config *.server.app[*].typename VoipSender
config *.server.app[*].packetSize 40B
config *.server.app[*].destAddress "\"ue[\"+string(ancestorIndex(0))+\"]\""
config *.server.app[*].destPort 3000
config *.server.app[*].localPort 3088+ancestorIndex(0)
config *.server.app[*].startTime uniform(0s,0.02s)
config sim-time-limit 20s
config output-scalar-file results/VoIP-DL/0.sca
config output-vector-file results/VoIP-DL/0.vec
config seed-set 0
config **.vector-recording false
config **.mobility.constraintAreaMinZ 0m
config **.mobility.constraintAreaMaxZ 0m
config **.mobility.initFromDisplayString true
config **.numBands 6
config **.ueTxPower 26dBm
config **.eNodeBTxPower 40dBm
config *.configurator.config "xmldoc(\"./demo.xml\")"

scalar SingleCell.server.lo[0].lo rcvdPkFromHl:count 0
scalar SingleCell.server.lo[0].lo rcvdPkFromHl:sum(packetBytes) 0
scalar SingleCell.server.lo[0].lo passedUpPk:count 0
scalar SingleCell.server.lo[0].lo passedUpPk:sum(packetBytes) 0
scalar SingleCell.server.lo[0] packetDropInterfaceDown:count 0
scalar SingleCell.server.lo[0] packetDropInterfaceDown:sum(packetBytes) 0
scalar SingleCell.server.lo[0] packetDropNoCarrier:count 0
scalar SingleCell.server.lo[0] packetDropNoCarrier:sum(packetBytes) 0
scalar SingleCell.server.ppp[0].queue queueLength:last 0
scalar SingleCell.server.ppp[0].queue queueLength:max 0
scalar SingleCell.server.ppp[0].queue queueLength:timeavg 0
scalar SingleCell.server.ppp[0].queue queueBitLength:last 0
scalar SingleCell.server.ppp[0].queue queueBitLength:max 0
scalar SingleCell.server.ppp[0].queue queueBitLength:timeavg 0
scalar SingleCell.server.ppp[0].queue outgoingPackets:count 2983
scalar SingleCell.server.ppp[0].queue outgoingPacketLengths:sum 1622752
scalar SingleCell.server.ppp[0].queue incomingPackets:count 2983
scalar SingleCell.server.ppp[0].queue incomingPacketLengths:sum 1622752
scalar SingleCell.server.ppp[0].queue droppedPacketsQueueOverflow:count 0
scalar SingleCell.server.ppp[0].queue droppedPacketLengthsQueueOverflow:sum 0
scalar SingleCell.server.ppp[0].ppp transmissionState:timeavg 8.9489999999996716e-06
scalar SingleCell.server.ppp[0].ppp rxPkOk:count 0
scalar SingleCell.server.ppp[0].ppp rxPkOk:sum(packetBytes) 0
scalar SingleCell.server.ppp[0].ppp txPk:count 2983
scalar SingleCell.server.ppp[0].ppp txPk:sum(packetBytes) 223725
scalar SingleCell.server.ppp[0].ppp rcvdPkFromHl:count 2983
scalar SingleCell.server.ppp[0].ppp rcvdPkFromHl:sum(packetBytes) 202844
scalar SingleCell.server.ppp[0].ppp passedUpPk:count 0
scalar SingleCell.server.ppp[0].ppp passedUpPk:sum(packetBytes) 0
scalar SingleCell.server.ppp[0].ppp packetDropIncorrectlyReceived:count 0
scalar SingleCell.server.ppp[0].ppp packetDropIncorrectlyReceived:sum(packetBytes) 0
scalar SingleCell.server.ppp[0].ppp packetDropInterfaceDown:count 0
scalar SingleCell.server.ppp[0].ppp packetDropInterfaceDown:sum(packetBytes) 0
scalar SingleCell.server.ppp[0] packetDropInterfaceDown:count 0
scalar SingleCell.server.ppp[0] packetDropInterfaceDown:sum(packetBytes) 0
scalar SingleCell.server.ppp[0] packetDropNoCarrier:count 0
scalar SingleCell.server.ppp[0] packetDropNoCarrier:sum(packetBytes) 0
scalar SingleCell.server.ipv4.ip packetDropAddressResolutionFailed:count 0
scalar SingleCell.server.ipv4.ip packetDropAddressResolutionFailed:sum(packetBytes) 0
scalar SingleCell.server.ipv4.ip packetDropHopLimitReached:count 0
scalar SingleCell.server.ipv4.ip packetDropHopLimitReached:sum(packetBytes) 0
scalar SingleCell.server.ipv4.ip packetDropForwardingDisabled:count 0
scalar SingleCell.server.ipv4.ip packetDropForwardingDisabled:sum(packetBytes) 0
scalar SingleCell.server.ipv4.ip packetDropNoInterfaceFound:count 0
scalar SingleCell.server.ipv4.ip packetDropNoInterfaceFound:sum(packetBytes) 0
scalar SingleCell.server.ipv4.ip packetDropNoRouteFound:count 0
scalar SingleCell.server.ipv4.ip packetDropNoRouteFound:sum(packetBytes) 0
scalar SingleCell.server.ipv4.ip packetDropUndefined:count 0
scalar SingleCell.server.ipv4.ip packetDropUndefined:sum(packetBytes) 0
scalar SingleCell.server.ipv4.arp arpResolutionFailed:count 0
scalar SingleCell.server.ipv4.arp arpResolutionCompleted:count 0
scalar SingleCell.server.ipv4.arp arpResolutionInitiated:count 0
scalar SingleCell.server.ipv4.arp arpReplySent:count 0
scalar SingleCell.server.ipv4.arp arpReplySent:sum(packetBytes) 0
scalar SingleCell.server.ipv4.arp arpRequestSent:count 0
scalar SingleCell.server.ipv4.arp arpRequestSent:sum(packetBytes) 0
scalar SingleCell.server.udp packetReceived:count 0
scalar SingleCell.server.udp packetReceived:sum(packetBytes) 0
scalar SingleCell.server.udp packetSent:count 2983
scalar SingleCell.server.udp packetSent:sum(packetBytes) 143184
scalar SingleCell.server.udp passedUpPk:count 0
scalar SingleCell.server.udp droppedPkWrongPort:count 0
scalar SingleCell.server.udp droppedPkBadChecksum:count 0
scalar SingleCell.server.app[0] voIPGeneratedThroughput:mean 1058.8266513992305
scalar SingleCell.server.app[1] voIPGeneratedThroughput:mean 1786.0584590991932
scalar SingleCell.server.app[2] voIPGeneratedThroughput:mean 1240.0770151449126
scalar SingleCell.server.app[3] voIPGeneratedThroughput:mean 1031.7185142666851
scalar SingleCell.server.app[4] voIPGeneratedThroughput:mean 1168.0915272637471
scalar SingleCell.router.lo[0].lo rcvdPkFromHl:count 0
scalar SingleCell.router.lo[0].lo rcvdPkFromHl:sum(packetBytes) 0
scalar SingleCell.router.lo[0].lo passedUpPk:count 0
scalar SingleCell.router.lo[0].lo passedUpPk:sum(packetBytes) 0
scalar SingleCell.router.lo[0] packetDropInterfaceDown:count 0
scalar SingleCell.router.lo[0] packetDropInterfaceDown:sum(packetBytes) 0
scalar SingleCell.router.lo[0] packetDropNoCarrier:count 0
scalar SingleCell.router.lo[0] packetDropNoCarrier:sum(packetBytes) 0
scalar SingleCell.router.ppp[0].queue queueLength:last 0
scalar SingleCell.router.ppp[0].queue queueLength:max 0
scalar SingleCell.router.ppp[0].queue queueLength:timeavg 0
scalar SingleCell.router.ppp[0].queue queueBitLength:last 0
scalar SingleCell.router.ppp[0].queue queueBitLength:max 0
scalar SingleCell.router.ppp[0].queue queueBitLength:timeavg 0
scalar SingleCell.router.ppp[0].queue outgoingPackets:count 0
scalar SingleCell.router.ppp[0].queue outgoingPacketLengths:sum 0
scalar SingleCell.router.ppp[0].queue incomingPackets:count 0
scalar SingleCell.router.ppp[0].queue incomingPacketLengths:sum 0
scalar SingleCell.router.ppp[0].queue droppedPacketsQueueOverflow:count 0
scalar SingleCell.router.ppp[0].queue droppedPacketLengthsQueueOverflow:sum 0
scalar SingleCell.router.ppp[0].ppp transmissionState:timeavg 0
scalar SingleCell.router.ppp[0].ppp rxPkOk:count 2983
scalar SingleCell.router.ppp[0].ppp rxPkOk:sum(packetBytes) 223725
scalar SingleCell.router.ppp[0].ppp txPk:count 0
scalar SingleCell.router.ppp[0].ppp txPk:sum(packetBytes) 0
scalar SingleCell.router.ppp[0].ppp rcvdPkFromHl:count 0
scalar SingleCell.router.ppp[0].ppp rcvdPkFromHl:sum(packetBytes) 0
scalar SingleCell.router.ppp[0].ppp passedUpPk:count 2983
scalar SingleCell.router.ppp[0].ppp passedUpPk:sum(packetBytes) 202844
scalar SingleCell.router.ppp[0].ppp packetDropIncorrectlyReceived:count 0
scalar SingleCell.router.ppp[0].ppp packetDropIncorrectlyReceived:sum(packetBytes) 0
scalar SingleCell.router.ppp[0].ppp packetDropInterfaceDown:count 0
scalar SingleCell.router.ppp[0].ppp packetDropInterfaceDown:sum(packetBytes) 0
scalar SingleCell.router.ppp[0] packetDropInterfaceDown:count 0
scalar SingleCell.router.ppp[0] packetDropInterfaceDown:sum(packetBytes) 0
scalar SingleCell.router.ppp[0] packetDropNoCarrier:count 0
scalar SingleCell.router.ppp[0] packetDropNoCarrier:sum(packetBytes) 0
scalar SingleCell.router.ppp[1].queue queueLength:last 0
scalar SingleCell.router.ppp[1].queue queueLength:max 0
scalar SingleCell.router.ppp[1].queue queueLength:timeavg 0
scalar SingleCell.router.ppp[1].queue queueBitLength:last 0
scalar SingleCell.router.ppp[1].queue queueBitLength:max 0
scalar SingleCell.router.ppp[1].queue queueBitLength:timeavg 0
scalar SingleCell.router.ppp[1].queue outgoingPackets:count 2983
scalar SingleCell.router.ppp[1].queue outgoingPacketLengths:sum 1622752
scalar SingleCell.router.ppp[1].queue incomingPackets:count 2983
scalar SingleCell.router.ppp[1].queue incomingPacketLengths:sum 1622752
scalar SingleCell.router.ppp[1].queue droppedPacketsQueueOverflow:count 0
scalar SingleCell.router.ppp[1].queue droppedPacketLengthsQueueOverflow:sum 0
scalar SingleCell.router.ppp[1].ppp transmissionState:timeavg 8.9489999999996716e-06
scalar SingleCell.router.ppp[1].ppp rxPkOk:count 0
scalar SingleCell.router.ppp[1].ppp rxPkOk:sum(packetBytes) 0
scalar SingleCell.router.ppp[1].ppp txPk:count 2983
scalar SingleCell.router.ppp[1].ppp txPk:sum(packetBytes) 223725
scalar SingleCell.router.ppp[1].ppp rcvdPkFromHl:count 2983
scalar SingleCell.router.ppp[1].ppp rcvdPkFromHl:sum(packetBytes) 202844
scalar SingleCell.router.ppp[1].ppp passedUpPk:count 0
scalar SingleCell.router.ppp[1].ppp passedUpPk:sum(packetBytes) 0
scalar SingleCell.router.ppp[1].ppp packetDropIncorrectlyReceived:count 0
scalar SingleCell.router.ppp[1].ppp packetDropIncorrectlyReceived:sum(packetBytes) 0
scalar SingleCell.router.ppp[1].ppp packetDropInterfaceDown:count 0
scalar SingleCell.router.ppp[1].ppp packetDropInterfaceDown:sum(packetBytes) 0
scalar SingleCell.router.ppp[1] packetDropInterfaceDown:count 0
scalar SingleCell.router.ppp[1] packetDropInterfaceDown:sum(packetBytes) 0
scalar SingleCell.router.ppp[1] packetDropNoCarrier:count 0
scalar SingleCell.router.ppp[1] packetDropNoCarrier:sum(packetBytes) 0
scalar SingleCell.router.ipv4.ip packetDropAddressResolutionFailed:count 0
scalar SingleCell.router.ipv4.ip packetDropAddressResolutionFailed:sum(packetBytes) 0
scalar SingleCell.router.ipv4.ip packetDropHopLimitReached:count 0
scalar SingleCell.router.ipv4.ip packetDropHopLimitReached:sum(packetBytes) 0
scalar SingleCell.router.ipv4.ip packetDropForwardingDisabled:count 0
scalar SingleCell.router.ipv4.ip packetDropForwardingDisabled:sum(packetBytes) 0
scalar SingleCell.router.ipv4.ip packetDropNoInterfaceFound:count 0
scalar SingleCell.router.ipv4.ip packetDropNoInterfaceFound:sum(packetBytes) 0
scalar SingleCell.router.ipv4.ip packetDropNoRouteFound:count 0
scalar SingleCell.router.ipv4.ip packetDropNoRouteFound:sum(packetBytes) 0
scalar SingleCell.router.ipv4.ip packetDropUndefined:count 0
scalar SingleCell.router.ipv4.ip packetDropUndefined:sum(packetBytes) 0
scalar SingleCell.router.ipv4.arp arpResolutionFailed:count 0
scalar SingleCell.router.ipv4.arp arpResolutionCompleted:count 0
scalar SingleCell.router.ipv4.arp arpResolutionInitiated:count 0
scalar SingleCell.router.ipv4.arp arpReplySent:count 0
scalar SingleCell.router.ipv4.arp arpReplySent:sum(packetBytes) 0
scalar SingleCell.router.ipv4.arp arpRequestSent:count 0
scalar SingleCell.router.ipv4.arp arpRequestSent:sum(packetBytes) 0
scalar SingleCell.pgw.lo[0].lo rcvdPkFromHl:count 0
scalar SingleCell.pgw.lo[0].lo rcvdPkFromHl:sum(packetBytes) 0
scalar SingleCell.pgw.lo[0].lo passedUpPk:count 0
scalar SingleCell.pgw.lo[0].lo passedUpPk:sum(packetBytes) 0
scalar SingleCell.pgw.lo[0] packetDropInterfaceDown:count 0
scalar SingleCell.pgw.lo[0] packetDropInterfaceDown:sum(packetBytes) 0
scalar SingleCell.pgw.lo[0] packetDropNoCarrier:count 0
scalar SingleCell.pgw.lo[0] packetDropNoCarrier:sum(packetBytes) 0
scalar SingleCell.pgw.ppp[0].queue queueLength:last 0
scalar SingleCell.pgw.ppp[0].queue queueLength:max 0
scalar SingleCell.pgw.ppp[0].queue queueLength:timeavg 0
scalar SingleCell.pgw.ppp[0].queue queueBitLength:last 0
scalar SingleCell.pgw.ppp[0].queue queueBitLength:max 0
scalar SingleCell.pgw.ppp[0].queue queueBitLength:timeavg 0
scalar SingleCell.pgw.ppp[0].queue outgoingPackets:count 2983
scalar SingleCell.pgw.ppp[0].queue outgoingPacketLengths:sum 2481856
scalar SingleCell.pgw.ppp[0].queue incomingPackets:count 2983
scalar SingleCell.pgw.ppp[0].queue incomingPacketLengths:sum 2481856
scalar SingleCell.pgw.ppp[0].queue droppedPacketsQueueOverflow:count 0
scalar SingleCell.pgw.ppp[0].queue droppedPacketLengthsQueueOverflow:sum 0
scalar SingleCell.pgw.ppp[0].ppp transmissionState:timeavg 1.3244520000000237e-05
scalar SingleCell.pgw.ppp[0].ppp rxPkOk:count 0
scalar SingleCell.pgw.ppp[0].ppp rxPkOk:sum(packetBytes) 0
scalar SingleCell.pgw.ppp[0].ppp txPk:count 2983
scalar SingleCell.pgw.ppp[0].ppp txPk:sum(packetBytes) 331113
scalar SingleCell.pgw.ppp[0].ppp rcvdPkFromHl:count 2983
scalar SingleCell.pgw.ppp[0].ppp rcvdPkFromHl:sum(packetBytes) 310232
scalar SingleCell.pgw.ppp[0].ppp passedUpPk:count 0
scalar SingleCell.pgw.ppp[0].ppp passedUpPk:sum(packetBytes) 0
scalar SingleCell.pgw.ppp[0].ppp packetDropIncorrectlyReceived:count 0
scalar SingleCell.pgw.ppp[0].ppp packetDropIncorrectlyReceived:sum(packetBytes) 0
scalar SingleCell.pgw.ppp[0].ppp packetDropInterfaceDown:count 0
scalar SingleCell.pgw.ppp[0].ppp packetDropInterfaceDown:sum(packetBytes) 0
scalar SingleCell.pgw.ppp[0] packetDropInterfaceDown:count 0
scalar SingleCell.pgw.ppp[0] packetDropInterfaceDown:sum(packetBytes) 0
scalar SingleCell.pgw.ppp[0] packetDropNoCarrier:count 0
scalar SingleCell.pgw.ppp[0] packetDropNoCarrier:sum(packetBytes) 0
scalar SingleCell.pgw.ipv4.ip packetDropAddressResolutionFailed:count 0
scalar SingleCell.pgw.ipv4.ip packetDropAddressResolutionFailed:sum(packetBytes) 0
scalar SingleCell.pgw.ipv4.ip packetDropHopLimitReached:count 0
scalar SingleCell.pgw.ipv4.ip packetDropHopLimitReached:sum(packetBytes) 0
scalar SingleCell.pgw.ipv4.ip packetDropForwardingDisabled:count 0
scalar SingleCell.pgw.ipv4.ip packetDropForwardingDisabled:sum(packetBytes) 0
scalar SingleCell.pgw.ipv4.ip packetDropNoInterfaceFound:count 0
scalar SingleCell.pgw.ipv4.ip packetDropNoInterfaceFound:sum(packetBytes) 0
scalar SingleCell.pgw.ipv4.ip packetDropNoRouteFound:count 0
scalar SingleCell.pgw.ipv4.ip packetDropNoRouteFound:sum(packetBytes) 0
scalar SingleCell.pgw.ipv4.ip packetDropUndefined:count 0
scalar SingleCell.pgw.ipv4.ip packetDropUndefined:sum(packetBytes) 0
scalar SingleCell.pgw.ipv4.arp arpResolutionFailed:count 0
scalar SingleCell.pgw.ipv4.arp arpResolutionCompleted:count 0
scalar SingleCell.pgw.ipv4.arp arpResolutionInitiated:count 0
scalar SingleCell.pgw.ipv4.arp arpReplySent:count 0
scalar SingleCell.pgw.ipv4.arp arpReplySent:sum(packetBytes) 0
scalar SingleCell.pgw.ipv4.arp arpRequestSent:count 0
scalar SingleCell.pgw.ipv4.arp arpRequestSent:sum(packetBytes) 0
scalar SingleCell.pgw.pppIf.queue queueLength:last 0
scalar SingleCell.pgw.pppIf.queue queueLength:max 0
scalar SingleCell.pgw.pppIf.queue queueLength:timeavg 0
scalar SingleCell.pgw.pppIf.queue queueBitLength:last 0
scalar SingleCell.pgw.pppIf.queue queueBitLength:max 0
scalar SingleCell.pgw.pppIf.queue queueBitLength:timeavg 0
scalar SingleCell.pgw.pppIf.queue outgoingPackets:count 0
scalar SingleCell.pgw.pppIf.queue outgoingPacketLengths:sum 0
scalar SingleCell.pgw.pppIf.queue incomingPackets:count 0
scalar SingleCell.pgw.pppIf.queue incomingPacketLengths:sum 0
scalar SingleCell.pgw.pppIf.queue droppedPacketsQueueOverflow:count 0
scalar SingleCell.pgw.pppIf.queue droppedPacketLengthsQueueOverflow:sum 0
scalar SingleCell.pgw.pppIf.ppp transmissionState:timeavg 0
scalar SingleCell.pgw.pppIf.ppp rxPkOk:count 2983
scalar SingleCell.pgw.pppIf.ppp rxPkOk:sum(packetBytes) 223725
scalar SingleCell.pgw.pppIf.ppp txPk:count 0
scalar SingleCell.pgw.pppIf.ppp txPk:sum(packetBytes) 0
scalar SingleCell.pgw.pppIf.ppp rcvdPkFromHl:count 0
scalar SingleCell.pgw.pppIf.ppp rcvdPkFromHl:sum(packetBytes) 0
scalar SingleCell.pgw.pppIf.ppp passedUpPk:count 2983
scalar SingleCell.pgw.pppIf.ppp passedUpPk:sum(packetBytes) 202844
scalar SingleCell.pgw.pppIf.ppp packetDropIncorrectlyReceived:count 0
scalar SingleCell.pgw.pppIf.ppp packetDropIncorrectlyReceived:sum(packetBytes) 0
scalar SingleCell.pgw.pppIf.ppp packetDropInterfaceDown:count 0
scalar SingleCell.pgw.pppIf.ppp packetDropInterfaceDown:sum(packetBytes) 0
scalar SingleCell.pgw.pppIf packetDropInterfaceDown:count 0
scalar SingleCell.pgw.pppIf packetDropInterfaceDown:sum(packetBytes) 0
scalar SingleCell.pgw.pppIf packetDropNoCarrier:count 0
scalar SingleCell.pgw.pppIf packetDropNoCarrier:sum(packetBytes) 0
scalar SingleCell.pgw.udp packetReceived:count 0
scalar SingleCell.pgw.udp packetReceived:sum(packetBytes) 0
scalar SingleCell.pgw.udp packetSent:count 2983
scalar SingleCell.pgw.udp packetSent:sum(packetBytes) 250572
scalar SingleCell.pgw.udp passedUpPk:count 0
scalar SingleCell.pgw.udp droppedPkWrongPort:count 0
scalar SingleCell.pgw.udp droppedPkBadChecksum:count 0
scalar SingleCell.eNB.cellularNic.pdcp sentPacketToLowerLayer:count 2983
scalar SingleCell.eNB.cellularNic.pdcp sentPacketToLowerLayer:sum(packetBytes) 205827
scalar SingleCell.eNB.cellularNic.pdcp sentPacketToUpperLayer:count 0
scalar SingleCell.eNB.cellularNic.pdcp sentPacketToUpperLayer:sum(packetBytes) 0
scalar SingleCell.eNB.cellularNic.pdcp receivedPacketFromLowerLayer:count 0
scalar SingleCell.eNB.cellularNic.pdcp receivedPacketFromLowerLayer:sum(packetBytes) 0
scalar SingleCell.eNB.cellularNic.pdcp receivedPacketFromUpperLayer:count 2983
scalar SingleCell.eNB.cellularNic.pdcp receivedPacketFromUpperLayer:sum(packetBytes) 202844
scalar SingleCell.eNB.cellularNic.rlc.tm rlcPacketLossUl:mean -nan
scalar SingleCell.eNB.cellularNic.rlc.tm rlcPacketLossUl:sum 0
scalar SingleCell.eNB.cellularNic.rlc.tm rlcPacketLossDl:mean -nan
scalar SingleCell.eNB.cellularNic.rlc.tm rlcPacketLossDl:sum 0
scalar SingleCell.eNB.cellularNic.rlc.tm sentPacketToLowerLayer:count 0
scalar SingleCell.eNB.cellularNic.rlc.tm sentPacketToLowerLayer:sum(packetBytes) 0
scalar SingleCell.eNB.cellularNic.rlc.tm sentPacketToUpperLayer:count 0
scalar SingleCell.eNB.cellularNic.rlc.tm sentPacketToUpperLayer:sum(packetBytes) 0
scalar SingleCell.eNB.cellularNic.rlc.tm receivedPacketFromLowerLayer:count 0
scalar SingleCell.eNB.cellularNic.rlc.tm receivedPacketFromLowerLayer:sum(packetBytes) 0
scalar SingleCell.eNB.cellularNic.rlc.tm receivedPacketFromUpperLayer:count 0
scalar SingleCell.eNB.cellularNic.rlc.tm receivedPacketFromUpperLayer:sum(packetBytes) 0
scalar SingleCell.eNB.cellularNic.rlc.um rlcPacketLossTotal:mean -nan
scalar SingleCell.eNB.cellularNic.rlc.um rlcCellThroughputUl:mean -nan
scalar SingleCell.eNB.cellularNic.rlc.um rlcCellThroughputDl:mean 10350.972513579263
scalar SingleCell.eNB.cellularNic.rlc.um rlcPduThroughputUl:mean -nan
scalar SingleCell.eNB.cellularNic.rlc.um rlcPduThroughputDl:mean -nan
scalar SingleCell.eNB.cellularNic.rlc.um rlcPduDelayUl:mean -nan
scalar SingleCell.eNB.cellularNic.rlc.um rlcPduDelayDl:mean -nan
scalar SingleCell.eNB.cellularNic.rlc.um rlcThroughputUl:mean -nan
scalar SingleCell.eNB.cellularNic.rlc.um rlcThroughputDl:mean -nan
scalar SingleCell.eNB.cellularNic.rlc.um rlcDelayUl:mean -nan
scalar SingleCell.eNB.cellularNic.rlc.um rlcDelayDl:mean -nan
scalar SingleCell.eNB.cellularNic.rlc.um rlcPduPacketLossUl:mean -nan
scalar SingleCell.eNB.cellularNic.rlc.um rlcPduPacketLossDl:mean -nan
scalar SingleCell.eNB.cellularNic.rlc.um rlcPacketLossUl:mean -nan
scalar SingleCell.eNB.cellularNic.rlc.um rlcPacketLossUl:sum 0
scalar SingleCell.eNB.cellularNic.rlc.um rlcPacketLossDl:mean -nan
scalar SingleCell.eNB.cellularNic.rlc.um rlcPacketLossDl:sum 0
scalar SingleCell.eNB.cellularNic.rlc.um rlcCellPacketLossUl:mean -nan
scalar SingleCell.eNB.cellularNic.rlc.um rlcCellPacketLossDl:mean 0
scalar SingleCell.eNB.cellularNic.rlc.um sentPacketToLowerLayer:count 2985
scalar SingleCell.eNB.cellularNic.rlc.um sentPacketToLowerLayer:sum(packetBytes) 211797
scalar SingleCell.eNB.cellularNic.rlc.um sentPacketToUpperLayer:count 0
scalar SingleCell.eNB.cellularNic.rlc.um sentPacketToUpperLayer:sum(packetBytes) 0
scalar SingleCell.eNB.cellularNic.rlc.um receivedPacketFromLowerLayer:count 0
scalar SingleCell.eNB.cellularNic.rlc.um receivedPacketFromLowerLayer:sum(packetBytes) 0
scalar SingleCell.eNB.cellularNic.rlc.um receivedPacketFromUpperLayer:count 2983
scalar SingleCell.eNB.cellularNic.rlc.um receivedPacketFromUpperLayer:sum(packetBytes) 205827
scalar SingleCell.eNB.cellularNic.rlc.am rlcPacketLossTotal:mean -nan
scalar SingleCell.eNB.cellularNic.rlc.am rlcCellThroughputUl:mean -nan
scalar SingleCell.eNB.cellularNic.rlc.am rlcCellThroughputDl:mean -nan
scalar SingleCell.eNB.cellularNic.rlc.am rlcPduThroughputUl:mean -nan
scalar SingleCell.eNB.cellularNic.rlc.am rlcPduThroughputDl:mean -nan
scalar SingleCell.eNB.cellularNic.rlc.am rlcPduDelayUl:mean -nan
scalar SingleCell.eNB.cellularNic.rlc.am rlcPduDelayDl:mean -nan
scalar SingleCell.eNB.cellularNic.rlc.am rlcThroughputUl:mean -nan
scalar SingleCell.eNB.cellularNic.rlc.am rlcThroughputDl:mean -nan
scalar SingleCell.eNB.cellularNic.rlc.am rlcDelayUl:mean -nan
scalar SingleCell.eNB.cellularNic.rlc.am rlcDelayDl:mean -nan
scalar SingleCell.eNB.cellularNic.rlc.am rlcPduPacketLossUl:mean -nan
scalar SingleCell.eNB.cellularNic.rlc.am rlcPduPacketLossDl:mean -nan
scalar SingleCell.eNB.cellularNic.rlc.am rlcPacketLossUl:mean -nan
scalar SingleCell.eNB.cellularNic.rlc.am rlcPacketLossDl:mean -nan
scalar SingleCell.eNB.cellularNic.rlc.am rlcCellPacketLossUl:mean -nan
scalar SingleCell.eNB.cellularNic.rlc.am rlcCellPacketLossDl:mean -nan
scalar SingleCell.eNB.cellularNic.mac avgServedBlocksUl:mean 0
scalar SingleCell.eNB.cellularNic.mac avgServedBlocksDl:mean 0.1802
scalar SingleCell.eNB.cellularNic.mac harqTxAttemptsUl:mean -nan
scalar SingleCell.eNB.cellularNic.mac harqTxAttemptsDl:mean -nan
scalar SingleCell.eNB.cellularNic.mac harqErrorRate_4th_Ul:mean -nan
scalar SingleCell.eNB.cellularNic.mac harqErrorRate_4th_Dl:mean -nan
scalar SingleCell.eNB.cellularNic.mac harqErrorRate_3rd_Ul:mean -nan
scalar SingleCell.eNB.cellularNic.mac harqErrorRate_3rd_Dl:mean -nan
scalar SingleCell.eNB.cellularNic.mac harqErrorRate_2nd_Ul:mean -nan
scalar SingleCell.eNB.cellularNic.mac harqErrorRate_2nd_Dl:mean -nan
scalar SingleCell.eNB.cellularNic.mac harqErrorRate_1st_Ul:mean -nan
scalar SingleCell.eNB.cellularNic.mac harqErrorRate_1st_Dl:mean -nan
scalar SingleCell.eNB.cellularNic.mac harqErrorRateUl:mean -nan
scalar SingleCell.eNB.cellularNic.mac harqErrorRateDl:mean -nan
scalar SingleCell.eNB.cellularNic.mac macCellPacketLossUl:mean -nan
scalar SingleCell.eNB.cellularNic.mac macCellPacketLossDl:mean 0
scalar SingleCell.eNB.cellularNic.mac macPacketLossUl:mean -nan
scalar SingleCell.eNB.cellularNic.mac macPacketLossDl:mean -nan
scalar SingleCell.eNB.cellularNic.mac macThroughputUl:mean -nan
scalar SingleCell.eNB.cellularNic.mac macThroughputDl:mean -nan
scalar SingleCell.eNB.cellularNic.mac macDelayUl:mean -nan
scalar SingleCell.eNB.cellularNic.mac macDelayDl:mean -nan
scalar SingleCell.eNB.cellularNic.mac macCellThroughputUl:mean -nan
scalar SingleCell.eNB.cellularNic.mac macCellThroughputDl:mean 10951.364790438301
scalar SingleCell.eNB.cellularNic.mac sentPacketToLowerLayer:count 3054
scalar SingleCell.eNB.cellularNic.mac sentPacketToLowerLayer:sum(packetBytes) 222804
scalar SingleCell.eNB.cellularNic.mac sentPacketToUpperLayer:count 2985
scalar SingleCell.eNB.cellularNic.mac sentPacketToUpperLayer:sum(packetBytes) 2985
scalar SingleCell.eNB.cellularNic.mac receivedPacketFromLowerLayer:count 19722
scalar SingleCell.eNB.cellularNic.mac receivedPacketFromLowerLayer:sum(packetBytes) 19722
scalar SingleCell.eNB.cellularNic.mac receivedPacketFromUpperLayer:count 5968
scalar SingleCell.eNB.cellularNic.mac receivedPacketFromUpperLayer:sum(packetBytes) 423590
scalar SingleCell.eNB.cellularNic.mac macBufferOverFlowD2D:mean -nan
scalar SingleCell.eNB.cellularNic.mac macBufferOverFlowUl:mean -nan
scalar SingleCell.eNB.cellularNic.mac macBufferOverFlowDl:mean -nan
scalar SingleCell.eNB.cellularNic.channelModel[0] measuredSinrUl:mean -nan
scalar SingleCell.eNB.cellularNic.channelModel[0] measuredSinrDl:mean -nan
scalar SingleCell.eNB.cellularNic.channelModel[0] rcvdSinrD2D:mean -nan
scalar SingleCell.eNB.cellularNic.channelModel[0] rcvdSinrUl:mean -nan
scalar SingleCell.eNB.cellularNic.channelModel[0] rcvdSinrDl:mean -nan
scalar SingleCell.eNB.cellularNic packetDropInterfaceDown:count 0
scalar SingleCell.eNB.cellularNic packetDropInterfaceDown:sum(packetBytes) 0
scalar SingleCell.eNB.cellularNic packetDropNoCarrier:count 0
scalar SingleCell.eNB.cellularNic packetDropNoCarrier:sum(packetBytes) 0
scalar SingleCell.eNB.pppIf.queue queueLength:last 0
scalar SingleCell.eNB.pppIf.queue queueLength:max 0
scalar SingleCell.eNB.pppIf.queue queueLength:timeavg 0
scalar SingleCell.eNB.pppIf.queue queueBitLength:last 0
scalar SingleCell.eNB.pppIf.queue queueBitLength:max 0
scalar SingleCell.eNB.pppIf.queue queueBitLength:timeavg 0
scalar SingleCell.eNB.pppIf.queue outgoingPackets:count 0
scalar SingleCell.eNB.pppIf.queue outgoingPacketLengths:sum 0
scalar SingleCell.eNB.pppIf.queue incomingPackets:count 0
scalar SingleCell.eNB.pppIf.queue incomingPacketLengths:sum 0
scalar SingleCell.eNB.pppIf.queue droppedPacketsQueueOverflow:count 0
scalar SingleCell.eNB.pppIf.queue droppedPacketLengthsQueueOverflow:sum 0
scalar SingleCell.eNB.pppIf.ppp transmissionState:timeavg 0
scalar SingleCell.eNB.pppIf.ppp rxPkOk:count 2983
scalar SingleCell.eNB.pppIf.ppp rxPkOk:sum(packetBytes) 331113
scalar SingleCell.eNB.pppIf.ppp txPk:count 0
scalar SingleCell.eNB.pppIf.ppp txPk:sum(packetBytes) 0
scalar SingleCell.eNB.pppIf.ppp rcvdPkFromHl:count 0
scalar SingleCell.eNB.pppIf.ppp rcvdPkFromHl:sum(packetBytes) 0
scalar SingleCell.eNB.pppIf.ppp passedUpPk:count 2983
scalar SingleCell.eNB.pppIf.ppp passedUpPk:sum(packetBytes) 310232
scalar SingleCell.eNB.pppIf.ppp packetDropIncorrectlyReceived:count 0
scalar SingleCell.eNB.pppIf.ppp packetDropIncorrectlyReceived:sum(packetBytes) 0
scalar SingleCell.eNB.pppIf.ppp packetDropInterfaceDown:count 0
scalar SingleCell.eNB.pppIf.ppp packetDropInterfaceDown:sum(packetBytes) 0
scalar SingleCell.eNB.pppIf packetDropInterfaceDown:count 0
scalar SingleCell.eNB.pppIf packetDropInterfaceDown:sum(packetBytes) 0
scalar SingleCell.eNB.pppIf packetDropNoCarrier:count 0
scalar SingleCell.eNB.pppIf packetDropNoCarrier:sum(packetBytes) 0
scalar SingleCell.eNB.pppMEHostIf.queue queueLength:last 0
scalar SingleCell.eNB.pppMEHostIf.queue queueLength:max 0
scalar SingleCell.eNB.pppMEHostIf.queue queueLength:timeavg 0
scalar SingleCell.eNB.pppMEHostIf.queue queueBitLength:last 0
scalar SingleCell.eNB.pppMEHostIf.queue queueBitLength:max 0
scalar SingleCell.eNB.pppMEHostIf.queue queueBitLength:timeavg 0
scalar SingleCell.eNB.pppMEHostIf.queue outgoingPackets:count 0
scalar SingleCell.eNB.pppMEHostIf.queue outgoingPacketLengths:sum 0
scalar SingleCell.eNB.pppMEHostIf.queue incomingPackets:count 0
scalar SingleCell.eNB.pppMEHostIf.queue incomingPacketLengths:sum 0
scalar SingleCell.eNB.pppMEHostIf.queue droppedPacketsQueueOverflow:count 0
scalar SingleCell.eNB.pppMEHostIf.queue droppedPacketLengthsQueueOverflow:sum 0
scalar SingleCell.eNB.pppMEHostIf.ppp transmissionState:timeavg 0
scalar SingleCell.eNB.pppMEHostIf.ppp rxPkOk:count 0
scalar SingleCell.eNB.pppMEHostIf.ppp rxPkOk:sum(packetBytes) 0
scalar SingleCell.eNB.pppMEHostIf.ppp txPk:count 0
scalar SingleCell.eNB.pppMEHostIf.ppp txPk:sum(packetBytes) 0
scalar SingleCell.eNB.pppMEHostIf.ppp rcvdPkFromHl:count 0
scalar SingleCell.eNB.pppMEHostIf.ppp rcvdPkFromHl:sum(packetBytes) 0
scalar SingleCell.eNB.pppMEHostIf.ppp passedUpPk:count 0
scalar SingleCell.eNB.pppMEHostIf.ppp passedUpPk:sum(packetBytes) 0
scalar SingleCell.eNB.pppMEHostIf.ppp packetDropIncorrectlyReceived:count 0
scalar SingleCell.eNB.pppMEHostIf.ppp packetDropIncorrectlyReceived:sum(packetBytes) 0
scalar SingleCell.eNB.pppMEHostIf.ppp packetDropInterfaceDown:count 0
scalar SingleCell.eNB.pppMEHostIf.ppp packetDropInterfaceDown:sum(packetBytes) 0
scalar SingleCell.eNB.pppMEHostIf packetDropInterfaceDown:count 0
scalar SingleCell.eNB.pppMEHostIf packetDropInterfaceDown:sum(packetBytes) 0
scalar SingleCell.eNB.pppMEHostIf packetDropNoCarrier:count 0
scalar SingleCell.eNB.pppMEHostIf packetDropNoCarrier:sum(packetBytes) 0
scalar SingleCell.eNB.ipv4.ip packetDropAddressResolutionFailed:count 0
scalar SingleCell.eNB.ipv4.ip packetDropAddressResolutionFailed:sum(packetBytes) 0
scalar SingleCell.eNB.ipv4.ip packetDropHopLimitReached:count 0
scalar SingleCell.eNB.ipv4.ip packetDropHopLimitReached:sum(packetBytes) 0
scalar SingleCell.eNB.ipv4.ip packetDropForwardingDisabled:count 0
scalar SingleCell.eNB.ipv4.ip packetDropForwardingDisabled:sum(packetBytes) 0
scalar SingleCell.eNB.ipv4.ip packetDropNoInterfaceFound:count 0
scalar SingleCell.eNB.ipv4.ip packetDropNoInterfaceFound:sum(packetBytes) 0
scalar SingleCell.eNB.ipv4.ip packetDropNoRouteFound:count 0
scalar SingleCell.eNB.ipv4.ip packetDropNoRouteFound:sum(packetBytes) 0
scalar SingleCell.eNB.ipv4.ip packetDropUndefined:count 0
scalar SingleCell.eNB.ipv4.ip packetDropUndefined:sum(packetBytes) 0
scalar SingleCell.eNB.ipv4.arp arpResolutionFailed:count 0
scalar SingleCell.eNB.ipv4.arp arpResolutionCompleted:count 0
scalar SingleCell.eNB.ipv4.arp arpResolutionInitiated:count 0
scalar SingleCell.eNB.ipv4.arp arpReplySent:count 0
scalar SingleCell.eNB.ipv4.arp arpReplySent:sum(packetBytes) 0
scalar SingleCell.eNB.ipv4.arp arpRequestSent:count 0
scalar SingleCell.eNB.ipv4.arp arpRequestSent:sum(packetBytes) 0
scalar SingleCell.eNB.udp packetReceived:count 2983
scalar SingleCell.eNB.udp packetReceived:sum(packetBytes) 250572
scalar SingleCell.eNB.udp packetSent:count 0
scalar SingleCell.eNB.udp packetSent:sum(packetBytes) 0
scalar SingleCell.eNB.udp passedUpPk:count 2983
scalar SingleCell.eNB.udp droppedPkWrongPort:count 0
scalar SingleCell.eNB.udp droppedPkBadChecksum:count 0
scalar SingleCell.ue[0].lo[0].lo rcvdPkFromHl:count 0
scalar SingleCell.ue[0].lo[0].lo rcvdPkFromHl:sum(packetBytes) 0
scalar SingleCell.ue[0].lo[0].lo passedUpPk:count 0
scalar SingleCell.ue[0].lo[0].lo passedUpPk:sum(packetBytes) 0
scalar SingleCell.ue[0].lo[0] packetDropInterfaceDown:count 0
scalar SingleCell.ue[0].lo[0] packetDropInterfaceDown:sum(packetBytes) 0
scalar SingleCell.ue[0].lo[0] packetDropNoCarrier:count 0
scalar SingleCell.ue[0].lo[0] packetDropNoCarrier:sum(packetBytes) 0
scalar SingleCell.ue[0].cellularNic.pdcp sentPacketToLowerLayer:count 0
scalar SingleCell.ue[0].cellularNic.pdcp sentPacketToLowerLayer:sum(packetBytes) 0
scalar SingleCell.ue[0].cellularNic.pdcp sentPacketToUpperLayer:count 501
scalar SingleCell.ue[0].cellularNic.pdcp sentPacketToUpperLayer:sum(packetBytes) 34068
scalar SingleCell.ue[0].cellularNic.pdcp receivedPacketFromLowerLayer:count 501
scalar SingleCell.ue[0].cellularNic.pdcp receivedPacketFromLowerLayer:sum(packetBytes) 34569
scalar SingleCell.ue[0].cellularNic.pdcp receivedPacketFromUpperLayer:count 0
scalar SingleCell.ue[0].cellularNic.pdcp receivedPacketFromUpperLayer:sum(packetBytes) 0
scalar SingleCell.ue[0].cellularNic.rlc.tm rlcPacketLossUl:mean -nan
scalar SingleCell.ue[0].cellularNic.rlc.tm rlcPacketLossUl:sum 0
scalar SingleCell.ue[0].cellularNic.rlc.tm rlcPacketLossDl:mean -nan
scalar SingleCell.ue[0].cellularNic.rlc.tm rlcPacketLossDl:sum 0
scalar SingleCell.ue[0].cellularNic.rlc.tm sentPacketToLowerLayer:count 0
scalar SingleCell.ue[0].cellularNic.rlc.tm sentPacketToLowerLayer:sum(packetBytes) 0
scalar SingleCell.ue[0].cellularNic.rlc.tm sentPacketToUpperLayer:count 0
scalar SingleCell.ue[0].cellularNic.rlc.tm sentPacketToUpperLayer:sum(packetBytes) 0
scalar SingleCell.ue[0].cellularNic.rlc.tm receivedPacketFromLowerLayer:count 0
scalar SingleCell.ue[0].cellularNic.rlc.tm receivedPacketFromLowerLayer:sum(packetBytes) 0
scalar SingleCell.ue[0].cellularNic.rlc.tm receivedPacketFromUpperLayer:count 0
scalar SingleCell.ue[0].cellularNic.rlc.tm receivedPacketFromUpperLayer:sum(packetBytes) 0
scalar SingleCell.ue[0].cellularNic.rlc.um rlcPacketLossTotal:mean 0
scalar SingleCell.ue[0].cellularNic.rlc.um rlcCellThroughputUl:mean -nan
scalar SingleCell.ue[0].cellularNic.rlc.um rlcCellThroughputDl:mean -nan
scalar SingleCell.ue[0].cellularNic.rlc.um rlcPduThroughputUl:mean -nan
scalar SingleCell.ue[0].cellularNic.rlc.um rlcPduThroughputDl:mean 0
scalar SingleCell.ue[0].cellularNic.rlc.um rlcPduDelayUl:mean -nan
scalar SingleCell.ue[0].cellularNic.rlc.um rlcPduDelayDl:mean 0.0041197604790419191
scalar SingleCell.ue[0].cellularNic.rlc.um rlcThroughputUl:mean -nan
scalar SingleCell.ue[0].cellularNic.rlc.um rlcThroughputDl:mean 1818.892737303855
scalar SingleCell.ue[0].cellularNic.rlc.um rlcDelayUl:mean -nan
scalar SingleCell.ue[0].cellularNic.rlc.um rlcDelayDl:mean 0.0044882338074650474
scalar SingleCell.ue[0].cellularNic.rlc.um rlcPduPacketLossUl:mean -nan
scalar SingleCell.ue[0].cellularNic.rlc.um rlcPduPacketLossDl:mean 0
scalar SingleCell.ue[0].cellularNic.rlc.um rlcPacketLossUl:mean -nan
scalar SingleCell.ue[0].cellularNic.rlc.um rlcPacketLossUl:sum 0
scalar SingleCell.ue[0].cellularNic.rlc.um rlcPacketLossDl:mean 0
scalar SingleCell.ue[0].cellularNic.rlc.um rlcPacketLossDl:sum 0
scalar SingleCell.ue[0].cellularNic.rlc.um rlcCellPacketLossUl:mean -nan
scalar SingleCell.ue[0].cellularNic.rlc.um rlcCellPacketLossDl:mean -nan
scalar SingleCell.ue[0].cellularNic.rlc.um sentPacketToLowerLayer:count 0
scalar SingleCell.ue[0].cellularNic.rlc.um sentPacketToLowerLayer:sum(packetBytes) 0
scalar SingleCell.ue[0].cellularNic.rlc.um sentPacketToUpperLayer:count 501
scalar SingleCell.ue[0].cellularNic.rlc.um sentPacketToUpperLayer:sum(packetBytes) 34569
scalar SingleCell.ue[0].cellularNic.rlc.um receivedPacketFromLowerLayer:count 501
scalar SingleCell.ue[0].cellularNic.rlc.um receivedPacketFromLowerLayer:sum(packetBytes) 35571
scalar SingleCell.ue[0].cellularNic.rlc.um receivedPacketFromUpperLayer:count 0
scalar SingleCell.ue[0].cellularNic.rlc.um receivedPacketFromUpperLayer:sum(packetBytes) 0
scalar SingleCell.ue[0].cellularNic.rlc.am rlcPacketLossTotal:mean -nan
scalar SingleCell.ue[0].cellularNic.rlc.am rlcCellThroughputUl:mean -nan
scalar SingleCell.ue[0].cellularNic.rlc.am rlcCellThroughputDl:mean -nan
scalar SingleCell.ue[0].cellularNic.rlc.am rlcPduThroughputUl:mean -nan
scalar SingleCell.ue[0].cellularNic.rlc.am rlcPduThroughputDl:mean -nan
scalar SingleCell.ue[0].cellularNic.rlc.am rlcPduDelayUl:mean -nan
scalar SingleCell.ue[0].cellularNic.rlc.am rlcPduDelayDl:mean -nan
scalar SingleCell.ue[0].cellularNic.rlc.am rlcThroughputUl:mean -nan
scalar SingleCell.ue[0].cellularNic.rlc.am rlcThroughputDl:mean -nan
scalar SingleCell.ue[0].cellularNic.rlc.am rlcDelayUl:mean -nan
scalar SingleCell.ue[0].cellularNic.rlc.am rlcDelayDl:mean -nan
scalar SingleCell.ue[0].cellularNic.rlc.am rlcPduPacketLossUl:mean -nan
scalar SingleCell.ue[0].cellularNic.rlc.am rlcPduPacketLossDl:mean -nan
scalar SingleCell.ue[0].cellularNic.rlc.am rlcPacketLossUl:mean -nan
scalar SingleCell.ue[0].cellularNic.rlc.am rlcPacketLossDl:mean -nan
scalar SingleCell.ue[0].cellularNic.rlc.am rlcCellPacketLossUl:mean -nan
scalar SingleCell.ue[0].cellularNic.rlc.am rlcCellPacketLossDl:mean -nan
scalar SingleCell.ue[0].cellularNic.mac harqTxAttemptsUl:mean -nan
scalar SingleCell.ue[0].cellularNic.mac harqTxAttemptsDl:mean 1.0199600798403194
scalar SingleCell.ue[0].cellularNic.mac harqErrorRate_4th_Ul:mean -nan
scalar SingleCell.ue[0].cellularNic.mac harqErrorRate_4th_Dl:mean -nan
scalar SingleCell.ue[0].cellularNic.mac harqErrorRate_3rd_Ul:mean -nan
scalar SingleCell.ue[0].cellularNic.mac harqErrorRate_3rd_Dl:mean -nan
scalar SingleCell.ue[0].cellularNic.mac harqErrorRate_2nd_Ul:mean -nan
scalar SingleCell.ue[0].cellularNic.mac harqErrorRate_2nd_Dl:mean 0
scalar SingleCell.ue[0].cellularNic.mac harqErrorRate_1st_Ul:mean -nan
scalar SingleCell.ue[0].cellularNic.mac harqErrorRate_1st_Dl:mean 0.019960079840319361
scalar SingleCell.ue[0].cellularNic.mac harqErrorRateUl:mean -nan
scalar SingleCell.ue[0].cellularNic.mac harqErrorRateDl:mean 0.019569471624266144
scalar SingleCell.ue[0].cellularNic.mac macCellPacketLossUl:mean -nan
scalar SingleCell.ue[0].cellularNic.mac macCellPacketLossDl:mean -nan
scalar SingleCell.ue[0].cellularNic.mac macPacketLossUl:mean -nan
scalar SingleCell.ue[0].cellularNic.mac macPacketLossDl:mean 0
scalar SingleCell.ue[0].cellularNic.mac macThroughputUl:mean -nan
scalar SingleCell.ue[0].cellularNic.mac macThroughputDl:mean 1924.3357945388616
scalar SingleCell.ue[0].cellularNic.mac macDelayUl:mean -nan
scalar SingleCell.ue[0].cellularNic.mac macDelayDl:mean 0.0041197604790419191
scalar SingleCell.ue[0].cellularNic.mac macCellThroughputUl:mean -nan
scalar SingleCell.ue[0].cellularNic.mac macCellThroughputDl:mean -nan
scalar SingleCell.ue[0].cellularNic.mac sentPacketToLowerLayer:count 511
scalar SingleCell.ue[0].cellularNic.mac sentPacketToLowerLayer:sum(packetBytes) 511
scalar SingleCell.ue[0].cellularNic.mac sentPacketToUpperLayer:count 501
scalar SingleCell.ue[0].cellularNic.mac sentPacketToUpperLayer:sum(packetBytes) 35571
scalar SingleCell.ue[0].cellularNic.mac receivedPacketFromLowerLayer:count 511
scalar SingleCell.ue[0].cellularNic.mac receivedPacketFromLowerLayer:sum(packetBytes) 37303
scalar SingleCell.ue[0].cellularNic.mac receivedPacketFromUpperLayer:count 0
scalar SingleCell.ue[0].cellularNic.mac receivedPacketFromUpperLayer:sum(packetBytes) 0
scalar SingleCell.ue[0].cellularNic.mac macBufferOverFlowD2D:mean -nan
scalar SingleCell.ue[0].cellularNic.mac macBufferOverFlowUl:mean -nan
scalar SingleCell.ue[0].cellularNic.mac macBufferOverFlowDl:mean -nan
scalar SingleCell.ue[0].cellularNic.phy distance:mean 381.67028126048177
scalar SingleCell.ue[0].cellularNic.phy averageCqiUl:mean -nan
scalar SingleCell.ue[0].cellularNic.phy averageCqiUl:count 0
scalar SingleCell.ue[0].cellularNic.phy averageCqiDl:mean 13.634050880626223
scalar SingleCell.ue[0].cellularNic.phy averageCqiDl:count 511
scalar SingleCell.ue[0].cellularNic.channelModel[0] measuredSinrUl:mean 17.571001010474021
scalar SingleCell.ue[0].cellularNic.channelModel[0] measuredSinrDl:mean 30.883171929446309
scalar SingleCell.ue[0].cellularNic.channelModel[0] rcvdSinrD2D:mean -nan
scalar SingleCell.ue[0].cellularNic.channelModel[0] rcvdSinrUl:mean -nan
scalar SingleCell.ue[0].cellularNic.channelModel[0] rcvdSinrDl:mean 32.167699108518775
scalar SingleCell.ue[0].cellularNic packetDropInterfaceDown:count 0
scalar SingleCell.ue[0].cellularNic packetDropInterfaceDown:sum(packetBytes) 0
scalar SingleCell.ue[0].cellularNic packetDropNoCarrier:count 0
scalar SingleCell.ue[0].cellularNic packetDropNoCarrier:sum(packetBytes) 0
scalar SingleCell.ue[0].encap pauseSent:count 0
scalar SingleCell.ue[0].encap pauseSent:sum 0
scalar SingleCell.ue[0].encap decapPk:count 0
scalar SingleCell.ue[0].encap decapPk:sum(packetBytes) 0
scalar SingleCell.ue[0].encap encapPk:count 0
scalar SingleCell.ue[0].encap encapPk:sum(packetBytes) 0
scalar SingleCell.ue[0].ipv4.ip packetDropAddressResolutionFailed:count 0
scalar SingleCell.ue[0].ipv4.ip packetDropAddressResolutionFailed:sum(packetBytes) 0
scalar SingleCell.ue[0].ipv4.ip packetDropHopLimitReached:count 0
scalar SingleCell.ue[0].ipv4.ip packetDropHopLimitReached:sum(packetBytes) 0
scalar SingleCell.ue[0].ipv4.ip packetDropForwardingDisabled:count 0
scalar SingleCell.ue[0].ipv4.ip packetDropForwardingDisabled:sum(packetBytes) 0
scalar SingleCell.ue[0].ipv4.ip packetDropNoInterfaceFound:count 0
scalar SingleCell.ue[0].ipv4.ip packetDropNoInterfaceFound:sum(packetBytes) 0
scalar SingleCell.ue[0].ipv4.ip packetDropNoRouteFound:count 0
scalar SingleCell.ue[0].ipv4.ip packetDropNoRouteFound:sum(packetBytes) 0
scalar SingleCell.ue[0].ipv4.ip packetDropUndefined:count 0
scalar SingleCell.ue[0].ipv4.ip packetDropUndefined:sum(packetBytes) 0
scalar SingleCell.ue[0].ipv4.arp arpResolutionFailed:count 0
scalar SingleCell.ue[0].ipv4.arp arpResolutionCompleted:count 0
scalar SingleCell.ue[0].ipv4.arp arpResolutionInitiated:count 0
scalar SingleCell.ue[0].ipv4.arp arpReplySent:count 0
scalar SingleCell.ue[0].ipv4.arp arpReplySent:sum(packetBytes) 0
scalar SingleCell.ue[0].ipv4.arp arpRequestSent:count 0
scalar SingleCell.ue[0].ipv4.arp arpRequestSent:sum(packetBytes) 0
scalar SingleCell.ue[0].udp packetReceived:count 501
scalar SingleCell.ue[0].udp packetReceived:sum(packetBytes) 24048
scalar SingleCell.ue[0].udp packetSent:count 0
scalar SingleCell.ue[0].udp packetSent:sum(packetBytes) 0
scalar SingleCell.ue[0].udp passedUpPk:count 501
scalar SingleCell.ue[0].udp droppedPkWrongPort:count 0
scalar SingleCell.ue[0].udp droppedPkBadChecksum:count 0
scalar SingleCell.ue[0].app[0] voIPReceivedThroughput:mean 1054.4305723500613
scalar SingleCell.ue[0].app[0] voIPPlayoutLoss:mean 0.027551020408163263
scalar SingleCell.ue[0].app[0] voIPJitter:mean 0.0060000000000000001
scalar SingleCell.ue[0].app[0] voIPTaildropLoss:mean 0
scalar SingleCell.ue[0].app[0] voIPMos:mean 3.9108583095137037
scalar SingleCell.ue[0].app[0] voIPPlayoutDelay:mean 0.0034285714285714288
scalar SingleCell.ue[0].app[0] voIPFrameDelay:mean 0.0044885926074650449
scalar SingleCell.ue[0].app[0] voIPFrameLoss:mean 0
scalar SingleCell.ue[1].lo[0].lo rcvdPkFromHl:count 0
scalar SingleCell.ue[1].lo[0].lo rcvdPkFromHl:sum(packetBytes) 0
scalar SingleCell.ue[1].lo[0].lo passedUpPk:count 0
scalar SingleCell.ue[1].lo[0].lo passedUpPk:sum(packetBytes) 0
scalar SingleCell.ue[1].lo[0] packetDropInterfaceDown:count 0
scalar SingleCell.ue[1].lo[0] packetDropInterfaceDown:sum(packetBytes) 0
scalar SingleCell.ue[1].lo[0] packetDropNoCarrier:count 0
scalar SingleCell.ue[1].lo[0] packetDropNoCarrier:sum(packetBytes) 0
scalar SingleCell.ue[1].cellularNic.pdcp sentPacketToLowerLayer:count 0
scalar SingleCell.ue[1].cellularNic.pdcp sentPacketToLowerLayer:sum(packetBytes) 0
scalar SingleCell.ue[1].cellularNic.pdcp sentPacketToUpperLayer:count 636
scalar SingleCell.ue[1].cellularNic.pdcp sentPacketToUpperLayer:sum(packetBytes) 43248
scalar SingleCell.ue[1].cellularNic.pdcp receivedPacketFromLowerLayer:count 636
scalar SingleCell.ue[1].cellularNic.pdcp receivedPacketFromLowerLayer:sum(packetBytes) 43884
scalar SingleCell.ue[1].cellularNic.pdcp receivedPacketFromUpperLayer:count 0
scalar SingleCell.ue[1].cellularNic.pdcp receivedPacketFromUpperLayer:sum(packetBytes) 0
scalar SingleCell.ue[1].cellularNic.rlc.tm rlcPacketLossUl:mean -nan
scalar SingleCell.ue[1].cellularNic.rlc.tm rlcPacketLossUl:sum 0
scalar SingleCell.ue[1].cellularNic.rlc.tm rlcPacketLossDl:mean -nan
scalar SingleCell.ue[1].cellularNic.rlc.tm rlcPacketLossDl:sum 0
scalar SingleCell.ue[1].cellularNic.rlc.tm sentPacketToLowerLayer:count 0
scalar SingleCell.ue[1].cellularNic.rlc.tm sentPacketToLowerLayer:sum(packetBytes) 0
scalar SingleCell.ue[1].cellularNic.rlc.tm sentPacketToUpperLayer:count 0
scalar SingleCell.ue[1].cellularNic.rlc.tm sentPacketToUpperLayer:sum(packetBytes) 0
scalar SingleCell.ue[1].cellularNic.rlc.tm receivedPacketFromLowerLayer:count 0
scalar SingleCell.ue[1].cellularNic.rlc.tm receivedPacketFromLowerLayer:sum(packetBytes) 0
scalar SingleCell.ue[1].cellularNic.rlc.tm receivedPacketFromUpperLayer:count 0
scalar SingleCell.ue[1].cellularNic.rlc.tm receivedPacketFromUpperLayer:sum(packetBytes) 0
scalar SingleCell.ue[1].cellularNic.rlc.um rlcPacketLossTotal:mean 0
scalar SingleCell.ue[1].cellularNic.rlc.um rlcCellThroughputUl:mean -nan
scalar SingleCell.ue[1].cellularNic.rlc.um rlcCellThroughputDl:mean -nan
scalar SingleCell.ue[1].cellularNic.rlc.um rlcPduThroughputUl:mean -nan
scalar SingleCell.ue[1].cellularNic.rlc.um rlcPduThroughputDl:mean 0
scalar SingleCell.ue[1].cellularNic.rlc.um rlcPduDelayUl:mean -nan
scalar SingleCell.ue[1].cellularNic.rlc.um rlcPduDelayDl:mean 0.0040471698113207569
scalar SingleCell.ue[1].cellularNic.rlc.um rlcThroughputUl:mean -nan
scalar SingleCell.ue[1].cellularNic.rlc.um rlcThroughputDl:mean 3066.3221852663405
scalar SingleCell.ue[1].cellularNic.rlc.um rlcDelayUl:mean -nan
scalar SingleCell.ue[1].cellularNic.rlc.um rlcDelayDl:mean 0.0045709473466462591
scalar SingleCell.ue[1].cellularNic.rlc.um rlcPduPacketLossUl:mean -nan
scalar SingleCell.ue[1].cellularNic.rlc.um rlcPduPacketLossDl:mean 0
scalar SingleCell.ue[1].cellularNic.rlc.um rlcPacketLossUl:mean -nan
scalar SingleCell.ue[1].cellularNic.rlc.um rlcPacketLossUl:sum 0
scalar SingleCell.ue[1].cellularNic.rlc.um rlcPacketLossDl:mean 0
scalar SingleCell.ue[1].cellularNic.rlc.um rlcPacketLossDl:sum 0
scalar SingleCell.ue[1].cellularNic.rlc.um rlcCellPacketLossUl:mean -nan
scalar SingleCell.ue[1].cellularNic.rlc.um rlcCellPacketLossDl:mean -nan
scalar SingleCell.ue[1].cellularNic.rlc.um sentPacketToLowerLayer:count 0
scalar SingleCell.ue[1].cellularNic.rlc.um sentPacketToLowerLayer:sum(packetBytes) 0
scalar SingleCell.ue[1].cellularNic.rlc.um sentPacketToUpperLayer:count 636
scalar SingleCell.ue[1].cellularNic.rlc.um sentPacketToUpperLayer:sum(packetBytes) 43884
scalar SingleCell.ue[1].cellularNic.rlc.um receivedPacketFromLowerLayer:count 636
scalar SingleCell.ue[1].cellularNic.rlc.um receivedPacketFromLowerLayer:sum(packetBytes) 45156
scalar SingleCell.ue[1].cellularNic.rlc.um receivedPacketFromUpperLayer:count 0
scalar SingleCell.ue[1].cellularNic.rlc.um receivedPacketFromUpperLayer:sum(packetBytes) 0
scalar SingleCell.ue[1].cellularNic.rlc.am rlcPacketLossTotal:mean -nan
scalar SingleCell.ue[1].cellularNic.rlc.am rlcCellThroughputUl:mean -nan
scalar SingleCell.ue[1].cellularNic.rlc.am rlcCellThroughputDl:mean -nan
scalar SingleCell.ue[1].cellularNic.rlc.am rlcPduThroughputUl:mean -nan
scalar SingleCell.ue[1].cellularNic.rlc.am rlcPduThroughputDl:mean -nan
scalar SingleCell.ue[1].cellularNic.rlc.am rlcPduDelayUl:mean -nan
scalar SingleCell.ue[1].cellularNic.rlc.am rlcPduDelayDl:mean -nan
scalar SingleCell.ue[1].cellularNic.rlc.am rlcThroughputUl:mean -nan
scalar SingleCell.ue[1].cellularNic.rlc.am rlcThroughputDl:mean -nan
scalar SingleCell.ue[1].cellularNic.rlc.am rlcDelayUl:mean -nan
scalar SingleCell.ue[1].cellularNic.rlc.am rlcDelayDl:mean -nan
scalar SingleCell.ue[1].cellularNic.rlc.am rlcPduPacketLossUl:mean -nan
scalar SingleCell.ue[1].cellularNic.rlc.am rlcPduPacketLossDl:mean -nan
scalar SingleCell.ue[1].cellularNic.rlc.am rlcPacketLossUl:mean -nan
scalar SingleCell.ue[1].cellularNic.rlc.am rlcPacketLossDl:mean -nan
scalar SingleCell.ue[1].cellularNic.rlc.am rlcCellPacketLossUl:mean -nan
scalar SingleCell.ue[1].cellularNic.rlc.am rlcCellPacketLossDl:mean -nan
scalar SingleCell.ue[1].cellularNic.mac harqTxAttemptsUl:mean -nan
scalar SingleCell.ue[1].cellularNic.mac harqTxAttemptsDl:mean 1.0078616352201257
scalar SingleCell.ue[1].cellularNic.mac harqErrorRate_4th_Ul:mean -nan
scalar SingleCell.ue[1].cellularNic.mac harqErrorRate_4th_Dl:mean -nan
scalar SingleCell.ue[1].cellularNic.mac harqErrorRate_3rd_Ul:mean -nan
scalar SingleCell.ue[1].cellularNic.mac harqErrorRate_3rd_Dl:mean -nan
scalar SingleCell.ue[1].cellularNic.mac harqErrorRate_2nd_Ul:mean -nan
scalar SingleCell.ue[1].cellularNic.mac harqErrorRate_2nd_Dl:mean 0
scalar SingleCell.ue[1].cellularNic.mac harqErrorRate_1st_Ul:mean -nan
scalar SingleCell.ue[1].cellularNic.mac harqErrorRate_1st_Dl:mean 0.0078616352201257862
scalar SingleCell.ue[1].cellularNic.mac harqErrorRateUl:mean -nan
scalar SingleCell.ue[1].cellularNic.mac harqErrorRateDl:mean 0.0078003120124804995
scalar SingleCell.ue[1].cellularNic.mac macCellPacketLossUl:mean -nan
scalar SingleCell.ue[1].cellularNic.mac macCellPacketLossDl:mean -nan
scalar SingleCell.ue[1].cellularNic.mac macPacketLossUl:mean -nan
scalar SingleCell.ue[1].cellularNic.mac macPacketLossDl:mean 0
scalar SingleCell.ue[1].cellularNic.mac macThroughputUl:mean -nan
scalar SingleCell.ue[1].cellularNic.mac macThroughputDl:mean 3244.079993107865
scalar SingleCell.ue[1].cellularNic.mac macDelayUl:mean -nan
scalar SingleCell.ue[1].cellularNic.mac macDelayDl:mean 0.0040471698113207569
scalar SingleCell.ue[1].cellularNic.mac macCellThroughputUl:mean -nan
scalar SingleCell.ue[1].cellularNic.mac macCellThroughputDl:mean -nan
scalar SingleCell.ue[1].cellularNic.mac sentPacketToLowerLayer:count 641
scalar SingleCell.ue[1].cellularNic.mac sentPacketToLowerLayer:sum(packetBytes) 641
scalar SingleCell.ue[1].cellularNic.mac sentPacketToUpperLayer:count 636
scalar SingleCell.ue[1].cellularNic.mac sentPacketToUpperLayer:sum(packetBytes) 45156
scalar SingleCell.ue[1].cellularNic.mac receivedPacketFromLowerLayer:count 641
scalar SingleCell.ue[1].cellularNic.mac receivedPacketFromLowerLayer:sum(packetBytes) 46793
scalar SingleCell.ue[1].cellularNic.mac receivedPacketFromUpperLayer:count 0
scalar SingleCell.ue[1].cellularNic.mac receivedPacketFromUpperLayer:sum(packetBytes) 0
scalar SingleCell.ue[1].cellularNic.mac macBufferOverFlowD2D:mean -nan
scalar SingleCell.ue[1].cellularNic.mac macBufferOverFlowUl:mean -nan
scalar SingleCell.ue[1].cellularNic.mac macBufferOverFlowDl:mean -nan
scalar SingleCell.ue[1].cellularNic.phy distance:mean 360.557919424636
scalar SingleCell.ue[1].cellularNic.phy averageCqiUl:mean -nan
scalar SingleCell.ue[1].cellularNic.phy averageCqiUl:count 0
scalar SingleCell.ue[1].cellularNic.phy averageCqiDl:mean 14.205928237129486
scalar SingleCell.ue[1].cellularNic.phy averageCqiDl:count 641
scalar SingleCell.ue[1].cellularNic.channelModel[0] measuredSinrUl:mean 22.246341780299918
scalar SingleCell.ue[1].cellularNic.channelModel[0] measuredSinrDl:mean 38.072436210659838
scalar SingleCell.ue[1].cellularNic.channelModel[0] rcvdSinrD2D:mean -nan
scalar SingleCell.ue[1].cellularNic.channelModel[0] rcvdSinrUl:mean -nan
scalar SingleCell.ue[1].cellularNic.channelModel[0] rcvdSinrDl:mean 37.174403179975513
scalar SingleCell.ue[1].cellularNic packetDropInterfaceDown:count 0
scalar SingleCell.ue[1].cellularNic packetDropInterfaceDown:sum(packetBytes) 0
scalar SingleCell.ue[1].cellularNic packetDropNoCarrier:count 0
scalar SingleCell.ue[1].cellularNic packetDropNoCarrier:sum(packetBytes) 0
scalar SingleCell.ue[1].encap pauseSent:count 0
scalar SingleCell.ue[1].encap pauseSent:sum 0
scalar SingleCell.ue[1].encap decapPk:count 0
scalar SingleCell.ue[1].encap decapPk:sum(packetBytes) 0
scalar SingleCell.ue[1].encap encapPk:count 0
scalar SingleCell.ue[1].encap encapPk:sum(packetBytes) 0
scalar SingleCell.ue[1].ipv4.ip packetDropAddressResolutionFailed:count 0
scalar SingleCell.ue[1].ipv4.ip packetDropAddressResolutionFailed:sum(packetBytes) 0
scalar SingleCell.ue[1].ipv4.ip packetDropHopLimitReached:count 0
scalar SingleCell.ue[1].ipv4.ip packetDropHopLimitReached:sum(packetBytes) 0
scalar SingleCell.ue[1].ipv4.ip packetDropForwardingDisabled:count 0
scalar SingleCell.ue[1].ipv4.ip packetDropForwardingDisabled:sum(packetBytes) 0
scalar SingleCell.ue[1].ipv4.ip packetDropNoInterfaceFound:count 0
scalar SingleCell.ue[1].ipv4.ip packetDropNoInterfaceFound:sum(packetBytes) 0
scalar SingleCell.ue[1].ipv4.ip packetDropNoRouteFound:count 0
scalar SingleCell.ue[1].ipv4.ip packetDropNoRouteFound:sum(packetBytes) 0
scalar SingleCell.ue[1].ipv4.ip packetDropUndefined:count 0
scalar SingleCell.ue[1].ipv4.ip packetDropUndefined:sum(packetBytes) 0
scalar SingleCell.ue[1].ipv4.arp arpResolutionFailed:count 0
scalar SingleCell.ue[1].ipv4.arp arpResolutionCompleted:count 0
scalar SingleCell.ue[1].ipv4.arp arpResolutionInitiated:count 0
scalar SingleCell.ue[1].ipv4.arp arpReplySent:count 0
scalar SingleCell.ue[1].ipv4.arp arpReplySent:sum(packetBytes) 0
scalar SingleCell.ue[1].ipv4.arp arpRequestSent:count 0
scalar SingleCell.ue[1].ipv4.arp arpRequestSent:sum(packetBytes) 0
scalar SingleCell.ue[1].udp packetReceived:count 636
scalar SingleCell.ue[1].udp packetReceived:sum(packetBytes) 30528
scalar SingleCell.ue[1].udp packetSent:count 0
scalar SingleCell.ue[1].udp packetSent:sum(packetBytes) 0
scalar SingleCell.ue[1].udp passedUpPk:count 636
scalar SingleCell.ue[1].udp droppedPkWrongPort:count 0
scalar SingleCell.ue[1].udp droppedPkBadChecksum:count 0
scalar SingleCell.ue[1].app[0] voIPReceivedThroughput:mean 1777.5780784152689
scalar SingleCell.ue[1].app[0] voIPPlayoutLoss:mean 0.0019157088122605363
scalar SingleCell.ue[1].app[0] voIPJitter:mean 0.0060000000000000001
scalar SingleCell.ue[1].app[0] voIPTaildropLoss:mean 0
scalar SingleCell.ue[1].app[0] voIPMos:mean 4.365704699338691
scalar SingleCell.ue[1].app[0] voIPPlayoutDelay:mean 0.0013333333333333333
scalar SingleCell.ue[1].app[0] voIPFrameDelay:mean 0.0045713061466462071
scalar SingleCell.ue[1].app[0] voIPFrameLoss:mean 0
scalar SingleCell.ue[2].lo[0].lo rcvdPkFromHl:count 0
scalar SingleCell.ue[2].lo[0].lo rcvdPkFromHl:sum(packetBytes) 0
scalar SingleCell.ue[2].lo[0].lo passedUpPk:count 0
scalar SingleCell.ue[2].lo[0].lo passedUpPk:sum(packetBytes) 0
scalar SingleCell.ue[2].lo[0] packetDropInterfaceDown:count 0
scalar SingleCell.ue[2].lo[0] packetDropInterfaceDown:sum(packetBytes) 0
scalar SingleCell.ue[2].lo[0] packetDropNoCarrier:count 0
scalar SingleCell.ue[2].lo[0] packetDropNoCarrier:sum(packetBytes) 0
scalar SingleCell.ue[2].cellularNic.pdcp sentPacketToLowerLayer:count 0
scalar SingleCell.ue[2].cellularNic.pdcp sentPacketToLowerLayer:sum(packetBytes) 0
scalar SingleCell.ue[2].cellularNic.pdcp sentPacketToUpperLayer:count 736
scalar SingleCell.ue[2].cellularNic.pdcp sentPacketToUpperLayer:sum(packetBytes) 50048
scalar SingleCell.ue[2].cellularNic.pdcp receivedPacketFromLowerLayer:count 736
scalar SingleCell.ue[2].cellularNic.pdcp receivedPacketFromLowerLayer:sum(packetBytes) 50784
scalar SingleCell.ue[2].cellularNic.pdcp receivedPacketFromUpperLayer:count 0
scalar SingleCell.ue[2].cellularNic.pdcp receivedPacketFromUpperLayer:sum(packetBytes) 0
scalar SingleCell.ue[2].cellularNic.rlc.tm rlcPacketLossUl:mean -nan
scalar SingleCell.ue[2].cellularNic.rlc.tm rlcPacketLossUl:sum 0
scalar SingleCell.ue[2].cellularNic.rlc.tm rlcPacketLossDl:mean -nan
scalar SingleCell.ue[2].cellularNic.rlc.tm rlcPacketLossDl:sum 0
scalar SingleCell.ue[2].cellularNic.rlc.tm sentPacketToLowerLayer:count 0
scalar SingleCell.ue[2].cellularNic.rlc.tm sentPacketToLowerLayer:sum(packetBytes) 0
scalar SingleCell.ue[2].cellularNic.rlc.tm sentPacketToUpperLayer:count 0
scalar SingleCell.ue[2].cellularNic.rlc.tm sentPacketToUpperLayer:sum(packetBytes) 0
scalar SingleCell.ue[2].cellularNic.rlc.tm receivedPacketFromLowerLayer:count 0
scalar SingleCell.ue[2].cellularNic.rlc.tm receivedPacketFromLowerLayer:sum(packetBytes) 0
scalar SingleCell.ue[2].cellularNic.rlc.tm receivedPacketFromUpperLayer:count 0
scalar SingleCell.ue[2].cellularNic.rlc.tm receivedPacketFromUpperLayer:sum(packetBytes) 0
scalar SingleCell.ue[2].cellularNic.rlc.um rlcPacketLossTotal:mean 0
scalar SingleCell.ue[2].cellularNic.rlc.um rlcCellThroughputUl:mean -nan
scalar SingleCell.ue[2].cellularNic.rlc.um rlcCellThroughputDl:mean -nan
scalar SingleCell.ue[2].cellularNic.rlc.um rlcPduThroughputUl:mean -nan
scalar SingleCell.ue[2].cellularNic.rlc.um rlcPduThroughputDl:mean 0
scalar SingleCell.ue[2].cellularNic.rlc.um rlcPduDelayUl:mean -nan
scalar SingleCell.ue[2].cellularNic.rlc.um rlcPduDelayDl:mean 0.004333333333333334
scalar SingleCell.ue[2].cellularNic.rlc.um rlcThroughputUl:mean -nan
scalar SingleCell.ue[2].cellularNic.rlc.um rlcThroughputDl:mean 2130.8873189343594
scalar SingleCell.ue[2].cellularNic.rlc.um rlcDelayUl:mean -nan
scalar SingleCell.ue[2].cellularNic.rlc.um rlcDelayDl:mean 0.0047021175860679602
scalar SingleCell.ue[2].cellularNic.rlc.um rlcPduPacketLossUl:mean -nan
scalar SingleCell.ue[2].cellularNic.rlc.um rlcPduPacketLossDl:mean 0
scalar SingleCell.ue[2].cellularNic.rlc.um rlcPacketLossUl:mean -nan
scalar SingleCell.ue[2].cellularNic.rlc.um rlcPacketLossUl:sum 0
scalar SingleCell.ue[2].cellularNic.rlc.um rlcPacketLossDl:mean 0
scalar SingleCell.ue[2].cellularNic.rlc.um rlcPacketLossDl:sum 0
scalar SingleCell.ue[2].cellularNic.rlc.um rlcCellPacketLossUl:mean -nan
scalar SingleCell.ue[2].cellularNic.rlc.um rlcCellPacketLossDl:mean -nan
scalar SingleCell.ue[2].cellularNic.rlc.um sentPacketToLowerLayer:count 0
scalar SingleCell.ue[2].cellularNic.rlc.um sentPacketToLowerLayer:sum(packetBytes) 0
scalar SingleCell.ue[2].cellularNic.rlc.um sentPacketToUpperLayer:count 736
scalar SingleCell.ue[2].cellularNic.rlc.um sentPacketToUpperLayer:sum(packetBytes) 50784
scalar SingleCell.ue[2].cellularNic.rlc.um receivedPacketFromLowerLayer:count 738
scalar SingleCell.ue[2].cellularNic.rlc.um receivedPacketFromLowerLayer:sum(packetBytes) 52260
scalar SingleCell.ue[2].cellularNic.rlc.um receivedPacketFromUpperLayer:count 0
scalar SingleCell.ue[2].cellularNic.rlc.um receivedPacketFromUpperLayer:sum(packetBytes) 0
scalar SingleCell.ue[2].cellularNic.rlc.am rlcPacketLossTotal:mean -nan
scalar SingleCell.ue[2].cellularNic.rlc.am rlcCellThroughputUl:mean -nan
scalar SingleCell.ue[2].cellularNic.rlc.am rlcCellThroughputDl:mean -nan
scalar SingleCell.ue[2].cellularNic.rlc.am rlcPduThroughputUl:mean -nan
scalar SingleCell.ue[2].cellularNic.rlc.am rlcPduThroughputDl:mean -nan
scalar SingleCell.ue[2].cellularNic.rlc.am rlcPduDelayUl:mean -nan
scalar SingleCell.ue[2].cellularNic.rlc.am rlcPduDelayDl:mean -nan
scalar SingleCell.ue[2].cellularNic.rlc.am rlcThroughputUl:mean -nan
scalar SingleCell.ue[2].cellularNic.rlc.am rlcThroughputDl:mean -nan
scalar SingleCell.ue[2].cellularNic.rlc.am rlcDelayUl:mean -nan
scalar SingleCell.ue[2].cellularNic.rlc.am rlcDelayDl:mean -nan
scalar SingleCell.ue[2].cellularNic.rlc.am rlcPduPacketLossUl:mean -nan
scalar SingleCell.ue[2].cellularNic.rlc.am rlcPduPacketLossDl:mean -nan
scalar SingleCell.ue[2].cellularNic.rlc.am rlcPacketLossUl:mean -nan
scalar SingleCell.ue[2].cellularNic.rlc.am rlcPacketLossDl:mean -nan
scalar SingleCell.ue[2].cellularNic.rlc.am rlcCellPacketLossUl:mean -nan
scalar SingleCell.ue[2].cellularNic.rlc.am rlcCellPacketLossDl:mean -nan
scalar SingleCell.ue[2].cellularNic.mac harqTxAttemptsUl:mean -nan
scalar SingleCell.ue[2].cellularNic.mac harqTxAttemptsDl:mean 1.0555555555555556
scalar SingleCell.ue[2].cellularNic.mac harqErrorRate_4th_Ul:mean -nan
scalar SingleCell.ue[2].cellularNic.mac harqErrorRate_4th_Dl:mean -nan
scalar SingleCell.ue[2].cellularNic.mac harqErrorRate_3rd_Ul:mean -nan
scalar SingleCell.ue[2].cellularNic.mac harqErrorRate_3rd_Dl:mean 0
scalar SingleCell.ue[2].cellularNic.mac harqErrorRate_2nd_Ul:mean -nan
scalar SingleCell.ue[2].cellularNic.mac harqErrorRate_2nd_Dl:mean 0.078947368421052627
scalar SingleCell.ue[2].cellularNic.mac harqErrorRate_1st_Ul:mean -nan
scalar SingleCell.ue[2].cellularNic.mac harqErrorRate_1st_Dl:mean 0.051490514905149054
scalar SingleCell.ue[2].cellularNic.mac harqErrorRateUl:mean -nan
scalar SingleCell.ue[2].cellularNic.mac harqErrorRateDl:mean 0.052631578947368418
scalar SingleCell.ue[2].cellularNic.mac macCellPacketLossUl:mean -nan
scalar SingleCell.ue[2].cellularNic.mac macCellPacketLossDl:mean -nan
scalar SingleCell.ue[2].cellularNic.mac macPacketLossUl:mean -nan
scalar SingleCell.ue[2].cellularNic.mac macPacketLossDl:mean 0
scalar SingleCell.ue[2].cellularNic.mac macThroughputUl:mean -nan
scalar SingleCell.ue[2].cellularNic.mac macThroughputDl:mean 2253.4337388968797
scalar SingleCell.ue[2].cellularNic.mac macDelayUl:mean -nan
scalar SingleCell.ue[2].cellularNic.mac macDelayDl:mean 0.004333333333333334
scalar SingleCell.ue[2].cellularNic.mac macCellThroughputUl:mean -nan
scalar SingleCell.ue[2].cellularNic.mac macCellThroughputDl:mean -nan
scalar SingleCell.ue[2].cellularNic.mac sentPacketToLowerLayer:count 779
scalar SingleCell.ue[2].cellularNic.mac sentPacketToLowerLayer:sum(packetBytes) 779
scalar SingleCell.ue[2].cellularNic.mac sentPacketToUpperLayer:count 738
scalar SingleCell.ue[2].cellularNic.mac sentPacketToUpperLayer:sum(packetBytes) 52260
scalar SingleCell.ue[2].cellularNic.mac receivedPacketFromLowerLayer:count 780
scalar SingleCell.ue[2].cellularNic.mac receivedPacketFromLowerLayer:sum(packetBytes) 56802
scalar SingleCell.ue[2].cellularNic.mac receivedPacketFromUpperLayer:count 0
scalar SingleCell.ue[2].cellularNic.mac receivedPacketFromUpperLayer:sum(packetBytes) 0
scalar SingleCell.ue[2].cellularNic.mac macBufferOverFlowD2D:mean -nan
scalar SingleCell.ue[2].cellularNic.mac macBufferOverFlowUl:mean -nan
scalar SingleCell.ue[2].cellularNic.mac macBufferOverFlowDl:mean -nan
scalar SingleCell.ue[2].cellularNic.phy distance:mean 257.51801832445585
scalar SingleCell.ue[2].cellularNic.phy averageCqiUl:mean -nan
scalar SingleCell.ue[2].cellularNic.phy averageCqiUl:count 0
scalar SingleCell.ue[2].cellularNic.phy averageCqiDl:mean 11.937179487179487
scalar SingleCell.ue[2].cellularNic.phy averageCqiDl:count 780
scalar SingleCell.ue[2].cellularNic.channelModel[0] measuredSinrUl:mean 28.880806830982529
scalar SingleCell.ue[2].cellularNic.channelModel[0] measuredSinrDl:mean 25.016350125756563
scalar SingleCell.ue[2].cellularNic.channelModel[0] rcvdSinrD2D:mean -nan
scalar SingleCell.ue[2].cellularNic.channelModel[0] rcvdSinrUl:mean -nan
scalar SingleCell.ue[2].cellularNic.channelModel[0] rcvdSinrDl:mean 24.755595662259704
scalar SingleCell.ue[2].cellularNic packetDropInterfaceDown:count 0
scalar SingleCell.ue[2].cellularNic packetDropInterfaceDown:sum(packetBytes) 0
scalar SingleCell.ue[2].cellularNic packetDropNoCarrier:count 0
scalar SingleCell.ue[2].cellularNic packetDropNoCarrier:sum(packetBytes) 0
scalar SingleCell.ue[2].encap pauseSent:count 0
scalar SingleCell.ue[2].encap pauseSent:sum 0
scalar SingleCell.ue[2].encap decapPk:count 0
scalar SingleCell.ue[2].encap decapPk:sum(packetBytes) 0
scalar SingleCell.ue[2].encap encapPk:count 0
scalar SingleCell.ue[2].encap encapPk:sum(packetBytes) 0
scalar SingleCell.ue[2].ipv4.ip packetDropAddressResolutionFailed:count 0
scalar SingleCell.ue[2].ipv4.ip packetDropAddressResolutionFailed:sum(packetBytes) 0
scalar SingleCell.ue[2].ipv4.ip packetDropHopLimitReached:count 0
scalar SingleCell.ue[2].ipv4.ip packetDropHopLimitReached:sum(packetBytes) 0
scalar SingleCell.ue[2].ipv4.ip packetDropForwardingDisabled:count 0
scalar SingleCell.ue[2].ipv4.ip packetDropForwardingDisabled:sum(packetBytes) 0
scalar SingleCell.ue[2].ipv4.ip packetDropNoInterfaceFound:count 0
scalar SingleCell.ue[2].ipv4.ip packetDropNoInterfaceFound:sum(packetBytes) 0
scalar SingleCell.ue[2].ipv4.ip packetDropNoRouteFound:count 0
scalar SingleCell.ue[2].ipv4.ip packetDropNoRouteFound:sum(packetBytes) 0
scalar SingleCell.ue[2].ipv4.ip packetDropUndefined:count 0
scalar SingleCell.ue[2].ipv4.ip packetDropUndefined:sum(packetBytes) 0
scalar SingleCell.ue[2].ipv4.arp arpResolutionFailed:count 0
scalar SingleCell.ue[2].ipv4.arp arpResolutionCompleted:count 0
scalar SingleCell.ue[2].ipv4.arp arpResolutionInitiated:count 0
scalar SingleCell.ue[2].ipv4.arp arpReplySent:count 0
scalar SingleCell.ue[2].ipv4.arp arpReplySent:sum(packetBytes) 0
scalar SingleCell.ue[2].ipv4.arp arpRequestSent:count 0
scalar SingleCell.ue[2].ipv4.arp arpRequestSent:sum(packetBytes) 0
scalar SingleCell.ue[2].udp packetReceived:count 736
scalar SingleCell.ue[2].udp packetReceived:sum(packetBytes) 35328
scalar SingleCell.ue[2].udp packetSent:count 0
scalar SingleCell.ue[2].udp packetSent:sum(packetBytes) 0
scalar SingleCell.ue[2].udp passedUpPk:count 736
scalar SingleCell.ue[2].udp droppedPkWrongPort:count 0
scalar SingleCell.ue[2].udp droppedPkBadChecksum:count 0
scalar SingleCell.ue[2].app[0] voIPReceivedThroughput:mean 1235.2969964836877
scalar SingleCell.ue[2].app[0] voIPPlayoutLoss:mean 0.0038662793314480962
scalar SingleCell.ue[2].app[0] voIPJitter:mean 0.006000000000000001
scalar SingleCell.ue[2].app[0] voIPTaildropLoss:mean 0
scalar SingleCell.ue[2].app[0] voIPMos:mean 4.3255066903304655
scalar SingleCell.ue[2].app[0] voIPPlayoutDelay:mean 0.0051428571428571435
scalar SingleCell.ue[2].app[0] voIPFrameDelay:mean 0.0047024763860679187
scalar SingleCell.ue[2].app[0] voIPFrameLoss:mean 0
scalar SingleCell.ue[3].lo[0].lo rcvdPkFromHl:count 0
scalar SingleCell.ue[3].lo[0].lo rcvdPkFromHl:sum(packetBytes) 0
scalar SingleCell.ue[3].lo[0].lo passedUpPk:count 0
scalar SingleCell.ue[3].lo[0].lo passedUpPk:sum(packetBytes) 0
scalar SingleCell.ue[3].lo[0] packetDropInterfaceDown:count 0
scalar SingleCell.ue[3].lo[0] packetDropInterfaceDown:sum(packetBytes) 0
scalar SingleCell.ue[3].lo[0] packetDropNoCarrier:count 0
scalar SingleCell.ue[3].lo[0] packetDropNoCarrier:sum(packetBytes) 0
scalar SingleCell.ue[3].cellularNic.pdcp sentPacketToLowerLayer:count 0
scalar SingleCell.ue[3].cellularNic.pdcp sentPacketToLowerLayer:sum(packetBytes) 0
scalar SingleCell.ue[3].cellularNic.pdcp sentPacketToUpperLayer:count 496
scalar SingleCell.ue[3].cellularNic.pdcp sentPacketToUpperLayer:sum(packetBytes) 33728
scalar SingleCell.ue[3].cellularNic.pdcp receivedPacketFromLowerLayer:count 496
scalar SingleCell.ue[3].cellularNic.pdcp receivedPacketFromLowerLayer:sum(packetBytes) 34224
scalar SingleCell.ue[3].cellularNic.pdcp receivedPacketFromUpperLayer:count 0
scalar SingleCell.ue[3].cellularNic.pdcp receivedPacketFromUpperLayer:sum(packetBytes) 0
scalar SingleCell.ue[3].cellularNic.rlc.tm rlcPacketLossUl:mean -nan
scalar SingleCell.ue[3].cellularNic.rlc.tm rlcPacketLossUl:sum 0
scalar SingleCell.ue[3].cellularNic.rlc.tm rlcPacketLossDl:mean -nan
scalar SingleCell.ue[3].cellularNic.rlc.tm rlcPacketLossDl:sum 0
scalar SingleCell.ue[3].cellularNic.rlc.tm sentPacketToLowerLayer:count 0
scalar SingleCell.ue[3].cellularNic.rlc.tm sentPacketToLowerLayer:sum(packetBytes) 0
scalar SingleCell.ue[3].cellularNic.rlc.tm sentPacketToUpperLayer:count 0
scalar SingleCell.ue[3].cellularNic.rlc.tm sentPacketToUpperLayer:sum(packetBytes) 0
scalar SingleCell.ue[3].cellularNic.rlc.tm receivedPacketFromLowerLayer:count 0
scalar SingleCell.ue[3].cellularNic.rlc.tm receivedPacketFromLowerLayer:sum(packetBytes) 0
scalar SingleCell.ue[3].cellularNic.rlc.tm receivedPacketFromUpperLayer:count 0
scalar SingleCell.ue[3].cellularNic.rlc.tm receivedPacketFromUpperLayer:sum(packetBytes) 0
scalar SingleCell.ue[3].cellularNic.rlc.um rlcPacketLossTotal:mean 0
scalar SingleCell.ue[3].cellularNic.rlc.um rlcCellThroughputUl:mean -nan
scalar SingleCell.ue[3].cellularNic.rlc.um rlcCellThroughputDl:mean -nan
scalar SingleCell.ue[3].cellularNic.rlc.um rlcPduThroughputUl:mean -nan
scalar SingleCell.ue[3].cellularNic.rlc.um rlcPduThroughputDl:mean 0
scalar SingleCell.ue[3].cellularNic.rlc.um rlcPduDelayUl:mean -nan
scalar SingleCell.ue[3].cellularNic.rlc.um rlcPduDelayDl:mean 0.0041330645161290359
scalar SingleCell.ue[3].cellularNic.rlc.um rlcThroughputUl:mean -nan
scalar SingleCell.ue[3].cellularNic.rlc.um rlcThroughputDl:mean 1772.9143754363351
scalar SingleCell.ue[3].cellularNic.rlc.um rlcDelayUl:mean -nan
scalar SingleCell.ue[3].cellularNic.rlc.um rlcDelayDl:mean 0.0046638141084072516
scalar SingleCell.ue[3].cellularNic.rlc.um rlcPduPacketLossUl:mean -nan
scalar SingleCell.ue[3].cellularNic.rlc.um rlcPduPacketLossDl:mean 0
scalar SingleCell.ue[3].cellularNic.rlc.um rlcPacketLossUl:mean -nan
scalar SingleCell.ue[3].cellularNic.rlc.um rlcPacketLossUl:sum 0
scalar SingleCell.ue[3].cellularNic.rlc.um rlcPacketLossDl:mean 0
scalar SingleCell.ue[3].cellularNic.rlc.um rlcPacketLossDl:sum 0
scalar SingleCell.ue[3].cellularNic.rlc.um rlcCellPacketLossUl:mean -nan
scalar SingleCell.ue[3].cellularNic.rlc.um rlcCellPacketLossDl:mean -nan
scalar SingleCell.ue[3].cellularNic.rlc.um sentPacketToLowerLayer:count 0
scalar SingleCell.ue[3].cellularNic.rlc.um sentPacketToLowerLayer:sum(packetBytes) 0
scalar SingleCell.ue[3].cellularNic.rlc.um sentPacketToUpperLayer:count 496
scalar SingleCell.ue[3].cellularNic.rlc.um sentPacketToUpperLayer:sum(packetBytes) 34224
scalar SingleCell.ue[3].cellularNic.rlc.um receivedPacketFromLowerLayer:count 496
scalar SingleCell.ue[3].cellularNic.rlc.um receivedPacketFromLowerLayer:sum(packetBytes) 35216
scalar SingleCell.ue[3].cellularNic.rlc.um receivedPacketFromUpperLayer:count 0
scalar SingleCell.ue[3].cellularNic.rlc.um receivedPacketFromUpperLayer:sum(packetBytes) 0
scalar SingleCell.ue[3].cellularNic.rlc.am rlcPacketLossTotal:mean -nan
scalar SingleCell.ue[3].cellularNic.rlc.am rlcCellThroughputUl:mean -nan
scalar SingleCell.ue[3].cellularNic.rlc.am rlcCellThroughputDl:mean -nan
scalar SingleCell.ue[3].cellularNic.rlc.am rlcPduThroughputUl:mean -nan
scalar SingleCell.ue[3].cellularNic.rlc.am rlcPduThroughputDl:mean -nan
scalar SingleCell.ue[3].cellularNic.rlc.am rlcPduDelayUl:mean -nan
scalar SingleCell.ue[3].cellularNic.rlc.am rlcPduDelayDl:mean -nan
scalar SingleCell.ue[3].cellularNic.rlc.am rlcThroughputUl:mean -nan
scalar SingleCell.ue[3].cellularNic.rlc.am rlcThroughputDl:mean -nan
scalar SingleCell.ue[3].cellularNic.rlc.am rlcDelayUl:mean -nan
scalar SingleCell.ue[3].cellularNic.rlc.am rlcDelayDl:mean -nan
scalar SingleCell.ue[3].cellularNic.rlc.am rlcPduPacketLossUl:mean -nan
scalar SingleCell.ue[3].cellularNic.rlc.am rlcPduPacketLossDl:mean -nan
scalar SingleCell.ue[3].cellularNic.rlc.am rlcPacketLossUl:mean -nan
scalar SingleCell.ue[3].cellularNic.rlc.am rlcPacketLossDl:mean -nan
scalar SingleCell.ue[3].cellularNic.rlc.am rlcCellPacketLossUl:mean -nan
scalar SingleCell.ue[3].cellularNic.rlc.am rlcCellPacketLossDl:mean -nan
scalar SingleCell.ue[3].cellularNic.mac harqTxAttemptsUl:mean -nan
scalar SingleCell.ue[3].cellularNic.mac harqTxAttemptsDl:mean 1.0221774193548387
scalar SingleCell.ue[3].cellularNic.mac harqErrorRate_4th_Ul:mean -nan
scalar SingleCell.ue[3].cellularNic.mac harqErrorRate_4th_Dl:mean -nan
scalar SingleCell.ue[3].cellularNic.mac harqErrorRate_3rd_Ul:mean -nan
scalar SingleCell.ue[3].cellularNic.mac harqErrorRate_3rd_Dl:mean 0
scalar SingleCell.ue[3].cellularNic.mac harqErrorRate_2nd_Ul:mean -nan
scalar SingleCell.ue[3].cellularNic.mac harqErrorRate_2nd_Dl:mean 0.10000000000000001
scalar SingleCell.ue[3].cellularNic.mac harqErrorRate_1st_Ul:mean -nan
scalar SingleCell.ue[3].cellularNic.mac harqErrorRate_1st_Dl:mean 0.020161290322580645
scalar SingleCell.ue[3].cellularNic.mac harqErrorRateUl:mean -nan
scalar SingleCell.ue[3].cellularNic.mac harqErrorRateDl:mean 0.021696252465483234
scalar SingleCell.ue[3].cellularNic.mac macCellPacketLossUl:mean -nan
scalar SingleCell.ue[3].cellularNic.mac macCellPacketLossDl:mean -nan
scalar SingleCell.ue[3].cellularNic.mac macPacketLossUl:mean -nan
scalar SingleCell.ue[3].cellularNic.mac macPacketLossDl:mean 0
scalar SingleCell.ue[3].cellularNic.mac macThroughputUl:mean -nan
scalar SingleCell.ue[3].cellularNic.mac macThroughputDl:mean 1875.6920203891666
scalar SingleCell.ue[3].cellularNic.mac macDelayUl:mean -nan
scalar SingleCell.ue[3].cellularNic.mac macDelayDl:mean 0.0041330645161290359
scalar SingleCell.ue[3].cellularNic.mac macCellThroughputUl:mean -nan
scalar SingleCell.ue[3].cellularNic.mac macCellThroughputDl:mean -nan
scalar SingleCell.ue[3].cellularNic.mac sentPacketToLowerLayer:count 507
scalar SingleCell.ue[3].cellularNic.mac sentPacketToLowerLayer:sum(packetBytes) 507
scalar SingleCell.ue[3].cellularNic.mac sentPacketToUpperLayer:count 496
scalar SingleCell.ue[3].cellularNic.mac sentPacketToUpperLayer:sum(packetBytes) 35216
scalar SingleCell.ue[3].cellularNic.mac receivedPacketFromLowerLayer:count 508
scalar SingleCell.ue[3].cellularNic.mac receivedPacketFromLowerLayer:sum(packetBytes) 37084
scalar SingleCell.ue[3].cellularNic.mac receivedPacketFromUpperLayer:count 0
scalar SingleCell.ue[3].cellularNic.mac receivedPacketFromUpperLayer:sum(packetBytes) 0
scalar SingleCell.ue[3].cellularNic.mac macBufferOverFlowD2D:mean -nan
scalar SingleCell.ue[3].cellularNic.mac macBufferOverFlowUl:mean -nan
scalar SingleCell.ue[3].cellularNic.mac macBufferOverFlowDl:mean -nan
scalar SingleCell.ue[3].cellularNic.phy distance:mean 331.57484201349411
scalar SingleCell.ue[3].cellularNic.phy averageCqiUl:mean -nan
scalar SingleCell.ue[3].cellularNic.phy averageCqiUl:count 0
scalar SingleCell.ue[3].cellularNic.phy averageCqiDl:mean 13.507874015748031
scalar SingleCell.ue[3].cellularNic.phy averageCqiDl:count 508
scalar SingleCell.ue[3].cellularNic.channelModel[0] measuredSinrUl:mean 30.168377071554769
scalar SingleCell.ue[3].cellularNic.channelModel[0] measuredSinrDl:mean 29.489286284841214
scalar SingleCell.ue[3].cellularNic.channelModel[0] rcvdSinrD2D:mean -nan
scalar SingleCell.ue[3].cellularNic.channelModel[0] rcvdSinrUl:mean -nan
scalar SingleCell.ue[3].cellularNic.channelModel[0] rcvdSinrDl:mean 27.774336319431328
scalar SingleCell.ue[3].cellularNic packetDropInterfaceDown:count 0
scalar SingleCell.ue[3].cellularNic packetDropInterfaceDown:sum(packetBytes) 0
scalar SingleCell.ue[3].cellularNic packetDropNoCarrier:count 0
scalar SingleCell.ue[3].cellularNic packetDropNoCarrier:sum(packetBytes) 0
scalar SingleCell.ue[3].encap pauseSent:count 0
scalar SingleCell.ue[3].encap pauseSent:sum 0
scalar SingleCell.ue[3].encap decapPk:count 0
scalar SingleCell.ue[3].encap decapPk:sum(packetBytes) 0
scalar SingleCell.ue[3].encap encapPk:count 0
scalar SingleCell.ue[3].encap encapPk:sum(packetBytes) 0
scalar SingleCell.ue[3].ipv4.ip packetDropAddressResolutionFailed:count 0
scalar SingleCell.ue[3].ipv4.ip packetDropAddressResolutionFailed:sum(packetBytes) 0
scalar SingleCell.ue[3].ipv4.ip packetDropHopLimitReached:count 0
scalar SingleCell.ue[3].ipv4.ip packetDropHopLimitReached:sum(packetBytes) 0
scalar SingleCell.ue[3].ipv4.ip packetDropForwardingDisabled:count 0
scalar SingleCell.ue[3].ipv4.ip packetDropForwardingDisabled:sum(packetBytes) 0
scalar SingleCell.ue[3].ipv4.ip packetDropNoInterfaceFound:count 0
scalar SingleCell.ue[3].ipv4.ip packetDropNoInterfaceFound:sum(packetBytes) 0
scalar SingleCell.ue[3].ipv4.ip packetDropNoRouteFound:count 0
scalar SingleCell.ue[3].ipv4.ip packetDropNoRouteFound:sum(packetBytes) 0
scalar SingleCell.ue[3].ipv4.ip packetDropUndefined:count 0
scalar SingleCell.ue[3].ipv4.ip packetDropUndefined:sum(packetBytes) 0
scalar SingleCell.ue[3].ipv4.arp arpResolutionFailed:count 0
scalar SingleCell.ue[3].ipv4.arp arpResolutionCompleted:count 0
scalar SingleCell.ue[3].ipv4.arp arpResolutionInitiated:count 0
scalar SingleCell.ue[3].ipv4.arp arpReplySent:count 0
scalar SingleCell.ue[3].ipv4.arp arpReplySent:sum(packetBytes) 0
scalar SingleCell.ue[3].ipv4.arp arpRequestSent:count 0
scalar SingleCell.ue[3].ipv4.arp arpRequestSent:sum(packetBytes) 0
scalar SingleCell.ue[3].udp packetReceived:count 496
scalar SingleCell.ue[3].udp packetReceived:sum(packetBytes) 23808
scalar SingleCell.ue[3].udp packetSent:count 0
scalar SingleCell.ue[3].udp packetSent:sum(packetBytes) 0
scalar SingleCell.ue[3].udp passedUpPk:count 496
scalar SingleCell.ue[3].udp droppedPkWrongPort:count 0
scalar SingleCell.ue[3].udp droppedPkBadChecksum:count 0
scalar SingleCell.ue[3].app[0] voIPReceivedThroughput:mean 1027.776449528312
scalar SingleCell.ue[3].app[0] voIPPlayoutLoss:mean 0.0033559276980329612
scalar SingleCell.ue[3].app[0] voIPJitter:mean 0.0080000000000000002
scalar SingleCell.ue[3].app[0] voIPTaildropLoss:mean 0
scalar SingleCell.ue[3].app[0] voIPMos:mean 4.3314737839265387
scalar SingleCell.ue[3].app[0] voIPPlayoutDelay:mean 0.0030000000000000005
scalar SingleCell.ue[3].app[0] voIPFrameDelay:mean 0.0046641729084072733
scalar SingleCell.ue[3].app[0] voIPFrameLoss:mean 0
scalar SingleCell.ue[4].lo[0].lo rcvdPkFromHl:count 0
scalar SingleCell.ue[4].lo[0].lo rcvdPkFromHl:sum(packetBytes) 0
scalar SingleCell.ue[4].lo[0].lo passedUpPk:count 0
scalar SingleCell.ue[4].lo[0].lo passedUpPk:sum(packetBytes) 0
scalar SingleCell.ue[4].lo[0] packetDropInterfaceDown:count 0
scalar SingleCell.ue[4].lo[0] packetDropInterfaceDown:sum(packetBytes) 0
scalar SingleCell.ue[4].lo[0] packetDropNoCarrier:count 0
scalar SingleCell.ue[4].lo[0] packetDropNoCarrier:sum(packetBytes) 0
scalar SingleCell.ue[4].cellularNic.pdcp sentPacketToLowerLayer:count 0
scalar SingleCell.ue[4].cellularNic.pdcp sentPacketToLowerLayer:sum(packetBytes) 0
scalar SingleCell.ue[4].cellularNic.pdcp sentPacketToUpperLayer:count 612
scalar SingleCell.ue[4].cellularNic.pdcp sentPacketToUpperLayer:sum(packetBytes) 41616
scalar SingleCell.ue[4].cellularNic.pdcp receivedPacketFromLowerLayer:count 612
scalar SingleCell.ue[4].cellularNic.pdcp receivedPacketFromLowerLayer:sum(packetBytes) 42228
scalar SingleCell.ue[4].cellularNic.pdcp receivedPacketFromUpperLayer:count 0
scalar SingleCell.ue[4].cellularNic.pdcp receivedPacketFromUpperLayer:sum(packetBytes) 0
scalar SingleCell.ue[4].cellularNic.rlc.tm rlcPacketLossUl:mean -nan
scalar SingleCell.ue[4].cellularNic.rlc.tm rlcPacketLossUl:sum 0
scalar SingleCell.ue[4].cellularNic.rlc.tm rlcPacketLossDl:mean -nan
scalar SingleCell.ue[4].cellularNic.rlc.tm rlcPacketLossDl:sum 0
scalar SingleCell.ue[4].cellularNic.rlc.tm sentPacketToLowerLayer:count 0
scalar SingleCell.ue[4].cellularNic.rlc.tm sentPacketToLowerLayer:sum(packetBytes) 0
scalar SingleCell.ue[4].cellularNic.rlc.tm sentPacketToUpperLayer:count 0
scalar SingleCell.ue[4].cellularNic.rlc.tm sentPacketToUpperLayer:sum(packetBytes) 0
scalar SingleCell.ue[4].cellularNic.rlc.tm receivedPacketFromLowerLayer:count 0
scalar SingleCell.ue[4].cellularNic.rlc.tm receivedPacketFromLowerLayer:sum(packetBytes) 0
scalar SingleCell.ue[4].cellularNic.rlc.tm receivedPacketFromUpperLayer:count 0
scalar SingleCell.ue[4].cellularNic.rlc.tm receivedPacketFromUpperLayer:sum(packetBytes) 0
scalar SingleCell.ue[4].cellularNic.rlc.um rlcPacketLossTotal:mean 0
scalar SingleCell.ue[4].cellularNic.rlc.um rlcCellThroughputUl:mean -nan
scalar SingleCell.ue[4].cellularNic.rlc.um rlcCellThroughputDl:mean -nan
scalar SingleCell.ue[4].cellularNic.rlc.um rlcPduThroughputUl:mean -nan
scalar SingleCell.ue[4].cellularNic.rlc.um rlcPduThroughputDl:mean 0
scalar SingleCell.ue[4].cellularNic.rlc.um rlcPduDelayUl:mean -nan
scalar SingleCell.ue[4].cellularNic.rlc.um rlcPduDelayDl:mean 0.0040196078431372568
scalar SingleCell.ue[4].cellularNic.rlc.um rlcThroughputUl:mean -nan
scalar SingleCell.ue[4].cellularNic.rlc.um rlcThroughputDl:mean 2009.0575498415703
scalar SingleCell.ue[4].cellularNic.rlc.um rlcDelayUl:mean -nan
scalar SingleCell.ue[4].cellularNic.rlc.um rlcDelayDl:mean 0.0045489438132630851
scalar SingleCell.ue[4].cellularNic.rlc.um rlcPduPacketLossUl:mean -nan
scalar SingleCell.ue[4].cellularNic.rlc.um rlcPduPacketLossDl:mean 0
scalar SingleCell.ue[4].cellularNic.rlc.um rlcPacketLossUl:mean -nan
scalar SingleCell.ue[4].cellularNic.rlc.um rlcPacketLossUl:sum 0
[...]
scalar SingleCell.ue[4].cellularNic.phy servingCell:vector:sum 201
scalar SingleCell.ue[4].cellularNic.phy servingCell:vector:sumweights 202
scalar SingleCell.ue[4].cellularNic.phy servingCell:vector:mean 0.99504950495049505
scalar SingleCell.ue[4].cellularNic.phy servingCell:vector:stddev 0.07035975447302889
scalar SingleCell.ue[4].cellularNic.phy servingCell:vector:min 0
scalar SingleCell.ue[4].cellularNic.phy servingCell:vector:max 1
scalar SingleCell.ue[4].cellularNic.phy servingCell:vector:starttime 0
scalar SingleCell.ue[4].cellularNic.phy servingCell:vector:endtime 20
scalar SingleCell.ue[4].cellularNic.phy averageCqiDl:vector:count 614
scalar SingleCell.ue[4].cellularNic.phy averageCqiDl:vector:sum 9184
scalar SingleCell.ue[4].cellularNic.phy averageCqiDl:vector:sumweights 614
scalar SingleCell.ue[4].cellularNic.phy averageCqiDl:vector:mean 14.957654723127035
scalar SingleCell.ue[4].cellularNic.phy averageCqiDl:vector:stddev 0.20947780487736031
scalar SingleCell.ue[4].cellularNic.phy averageCqiDl:vector:min 13
scalar SingleCell.ue[4].cellularNic.phy averageCqiDl:vector:max 15
scalar SingleCell.ue[4].cellularNic.phy averageCqiDl:vector:starttime 0.012
scalar SingleCell.ue[4].cellularNic.phy averageCqiDl:vector:endtime 18.914000000000001
scalar SingleCell.ue[4].cellularNic.phy averageCqiUl:vector:count 0
scalar SingleCell.ue[4].cellularNic.phy averageCqiUl:vector:sum 0
scalar SingleCell.ue[4].cellularNic.phy averageCqiUl:vector:sumweights 0
scalar SingleCell.ue[4].cellularNic.phy averageCqiUl:vector:mean -nan
scalar SingleCell.ue[4].cellularNic.phy averageCqiUl:vector:stddev nan
scalar SingleCell.ue[4].cellularNic.phy averageCqiUl:vector:min inf
scalar SingleCell.ue[4].cellularNic.phy averageCqiUl:vector:max -inf
scalar SingleCell.ue[4].cellularNic.phy averageCqiUl:vector:starttime nan
scalar SingleCell.ue[4].cellularNic.phy averageCqiUl:vector:endtime nan
scalar SingleCell.ue[4].cellularNic.channelModel[0] rcvdSinrDl:vector:count 614
scalar SingleCell.ue[4].cellularNic.channelModel[0] rcvdSinrDl:vector:sum 27150.850319186644
scalar SingleCell.ue[4].cellularNic.channelModel[0] rcvdSinrDl:vector:sumweights 614
scalar SingleCell.ue[4].cellularNic.channelModel[0] rcvdSinrDl:vector:mean 44.219625927014079
scalar SingleCell.ue[4].cellularNic.channelModel[0] rcvdSinrDl:vector:stddev 5.7262295838345398
scalar SingleCell.ue[4].cellularNic.channelModel[0] rcvdSinrDl:vector:min 11.557460025078456
scalar SingleCell.ue[4].cellularNic.channelModel[0] rcvdSinrDl:vector:max 59.606560548634164
scalar SingleCell.ue[4].cellularNic.channelModel[0] rcvdSinrDl:vector:starttime 0.012
scalar SingleCell.ue[4].cellularNic.channelModel[0] rcvdSinrDl:vector:endtime 18.914000000000001
scalar SingleCell.ue[4].cellularNic.channelModel[0] rcvdSinrUl:vector:count 0
scalar SingleCell.ue[4].cellularNic.channelModel[0] rcvdSinrUl:vector:sum 0
scalar SingleCell.ue[4].cellularNic.channelModel[0] rcvdSinrUl:vector:sumweights 0
scalar SingleCell.ue[4].cellularNic.channelModel[0] rcvdSinrUl:vector:mean -nan
scalar SingleCell.ue[4].cellularNic.channelModel[0] rcvdSinrUl:vector:stddev nan
scalar SingleCell.ue[4].cellularNic.channelModel[0] rcvdSinrUl:vector:min inf
scalar SingleCell.ue[4].cellularNic.channelModel[0] rcvdSinrUl:vector:max -inf
scalar SingleCell.ue[4].cellularNic.channelModel[0] rcvdSinrUl:vector:starttime nan
scalar SingleCell.ue[4].cellularNic.channelModel[0] rcvdSinrUl:vector:endtime nan
scalar SingleCell.ue[4].cellularNic.channelModel[0] rcvdSinrD2D:vector:count 0
scalar SingleCell.ue[4].cellularNic.channelModel[0] rcvdSinrD2D:vector:sum 0
scalar SingleCell.ue[4].cellularNic.channelModel[0] rcvdSinrD2D:vector:sumweights 0
scalar SingleCell.ue[4].cellularNic.channelModel[0] rcvdSinrD2D:vector:mean -nan
scalar SingleCell.ue[4].cellularNic.channelModel[0] rcvdSinrD2D:vector:stddev nan
scalar SingleCell.ue[4].cellularNic.channelModel[0] rcvdSinrD2D:vector:min inf
scalar SingleCell.ue[4].cellularNic.channelModel[0] rcvdSinrD2D:vector:max -inf
scalar SingleCell.ue[4].cellularNic.channelModel[0] rcvdSinrD2D:vector:starttime nan
scalar SingleCell.ue[4].cellularNic.channelModel[0] rcvdSinrD2D:vector:endtime nan
scalar SingleCell.ue[4].cellularNic.channelModel[0] measuredSinrDl:vector:count 3334
scalar SingleCell.ue[4].cellularNic.channelModel[0] measuredSinrDl:vector:sum 155100.79916793251
scalar SingleCell.ue[4].cellularNic.channelModel[0] measuredSinrDl:vector:sumweights 3334
scalar SingleCell.ue[4].cellularNic.channelModel[0] measuredSinrDl:vector:mean 46.520935563267095
scalar SingleCell.ue[4].cellularNic.channelModel[0] measuredSinrDl:vector:stddev 3.9643943582336481
scalar SingleCell.ue[4].cellularNic.channelModel[0] measuredSinrDl:vector:min 36.399679571737153
scalar SingleCell.ue[4].cellularNic.channelModel[0] measuredSinrDl:vector:max 57.076878377047173
scalar SingleCell.ue[4].cellularNic.channelModel[0] measuredSinrDl:vector:starttime 0.002
scalar SingleCell.ue[4].cellularNic.channelModel[0] measuredSinrDl:vector:endtime 20
scalar SingleCell.ue[4].cellularNic.channelModel[0] measuredSinrUl:vector:count 3334
scalar SingleCell.ue[4].cellularNic.channelModel[0] measuredSinrUl:vector:sum 110913.72092679811
scalar SingleCell.ue[4].cellularNic.channelModel[0] measuredSinrUl:vector:sumweights 3334
scalar SingleCell.ue[4].cellularNic.channelModel[0] measuredSinrUl:vector:mean 33.267462785482337
scalar SingleCell.ue[4].cellularNic.channelModel[0] measuredSinrUl:vector:stddev 1.1114179587004733
scalar SingleCell.ue[4].cellularNic.channelModel[0] measuredSinrUl:vector:min 22.895497532305143
scalar SingleCell.ue[4].cellularNic.channelModel[0] measuredSinrUl:vector:max 37.18010655464046
scalar SingleCell.ue[4].cellularNic.channelModel[0] measuredSinrUl:vector:starttime 0.002
scalar SingleCell.ue[4].cellularNic.channelModel[0] measuredSinrUl:vector:endtime 20
scalar SingleCell.ue[4].cellularNic packetDropInterfaceDown:vector(packetBytes):count 0
scalar SingleCell.ue[4].cellularNic packetDropInterfaceDown:vector(packetBytes):sum 0
scalar SingleCell.ue[4].cellularNic packetDropInterfaceDown:vector(packetBytes):sumweights 0
scalar SingleCell.ue[4].cellularNic packetDropInterfaceDown:vector(packetBytes):mean -nan
scalar SingleCell.ue[4].cellularNic packetDropInterfaceDown:vector(packetBytes):stddev nan
scalar SingleCell.ue[4].cellularNic packetDropInterfaceDown:vector(packetBytes):min inf
scalar SingleCell.ue[4].cellularNic packetDropInterfaceDown:vector(packetBytes):max -inf
scalar SingleCell.ue[4].cellularNic packetDropInterfaceDown:vector(packetBytes):starttime nan
scalar SingleCell.ue[4].cellularNic packetDropInterfaceDown:vector(packetBytes):endtime nan
scalar SingleCell.ue[4].cellularNic packetDropNoCarrier:vector(packetBytes):count 0
scalar SingleCell.ue[4].cellularNic packetDropNoCarrier:vector(packetBytes):sum 0
scalar SingleCell.ue[4].cellularNic packetDropNoCarrier:vector(packetBytes):sumweights 0
scalar SingleCell.ue[4].cellularNic packetDropNoCarrier:vector(packetBytes):mean -nan
scalar SingleCell.ue[4].cellularNic packetDropNoCarrier:vector(packetBytes):stddev nan
scalar SingleCell.ue[4].cellularNic packetDropNoCarrier:vector(packetBytes):min inf
scalar SingleCell.ue[4].cellularNic packetDropNoCarrier:vector(packetBytes):max -inf
scalar SingleCell.ue[4].cellularNic packetDropNoCarrier:vector(packetBytes):starttime nan
scalar SingleCell.ue[4].cellularNic packetDropNoCarrier:vector(packetBytes):endtime nan
scalar SingleCell.ue[4].encap encapPk:vector(packetBytes):count 0
scalar SingleCell.ue[4].encap encapPk:vector(packetBytes):sum 0
scalar SingleCell.ue[4].encap encapPk:vector(packetBytes):sumweights 0
scalar SingleCell.ue[4].encap encapPk:vector(packetBytes):mean -nan
scalar SingleCell.ue[4].encap encapPk:vector(packetBytes):stddev nan
scalar SingleCell.ue[4].encap encapPk:vector(packetBytes):min inf
scalar SingleCell.ue[4].encap encapPk:vector(packetBytes):max -inf
scalar SingleCell.ue[4].encap encapPk:vector(packetBytes):starttime nan
scalar SingleCell.ue[4].encap encapPk:vector(packetBytes):endtime nan
scalar SingleCell.ue[4].encap decapPk:vector(packetBytes):count 0
scalar SingleCell.ue[4].encap decapPk:vector(packetBytes):sum 0
scalar SingleCell.ue[4].encap decapPk:vector(packetBytes):sumweights 0
scalar SingleCell.ue[4].encap decapPk:vector(packetBytes):mean -nan
scalar SingleCell.ue[4].encap decapPk:vector(packetBytes):stddev nan
scalar SingleCell.ue[4].encap decapPk:vector(packetBytes):min inf
scalar SingleCell.ue[4].encap decapPk:vector(packetBytes):max -inf
scalar SingleCell.ue[4].encap decapPk:vector(packetBytes):starttime nan
scalar SingleCell.ue[4].encap decapPk:vector(packetBytes):endtime nan
scalar SingleCell.ue[4].encap pauseSent:vector:count 0
scalar SingleCell.ue[4].encap pauseSent:vector:sum 0
scalar SingleCell.ue[4].encap pauseSent:vector:sumweights 0
scalar SingleCell.ue[4].encap pauseSent:vector:mean -nan
scalar SingleCell.ue[4].encap pauseSent:vector:stddev nan
scalar SingleCell.ue[4].encap pauseSent:vector:min inf
scalar SingleCell.ue[4].encap pauseSent:vector:max -inf
scalar SingleCell.ue[4].encap pauseSent:vector:starttime nan
scalar SingleCell.ue[4].encap pauseSent:vector:endtime nan
scalar SingleCell.ue[4].ipv4.ip packetDropAddressResolutionFailed:vector(packetBytes):count 0
scalar SingleCell.ue[4].ipv4.ip packetDropAddressResolutionFailed:vector(packetBytes):sum 0
scalar SingleCell.ue[4].ipv4.ip packetDropAddressResolutionFailed:vector(packetBytes):sumweights 0
scalar SingleCell.ue[4].ipv4.ip packetDropAddressResolutionFailed:vector(packetBytes):mean -nan
scalar SingleCell.ue[4].ipv4.ip packetDropAddressResolutionFailed:vector(packetBytes):stddev nan
scalar SingleCell.ue[4].ipv4.ip packetDropAddressResolutionFailed:vector(packetBytes):min inf
scalar SingleCell.ue[4].ipv4.ip packetDropAddressResolutionFailed:vector(packetBytes):max -inf
scalar SingleCell.ue[4].ipv4.ip packetDropAddressResolutionFailed:vector(packetBytes):starttime nan
scalar SingleCell.ue[4].ipv4.ip packetDropAddressResolutionFailed:vector(packetBytes):endtime nan
scalar SingleCell.ue[4].ipv4.ip packetDropHopLimitReached:vector(packetBytes):count 0
scalar SingleCell.ue[4].ipv4.ip packetDropHopLimitReached:vector(packetBytes):sum 0
scalar SingleCell.ue[4].ipv4.ip packetDropHopLimitReached:vector(packetBytes):sumweights 0
scalar SingleCell.ue[4].ipv4.ip packetDropHopLimitReached:vector(packetBytes):mean -nan
scalar SingleCell.ue[4].ipv4.ip packetDropHopLimitReached:vector(packetBytes):stddev nan
scalar SingleCell.ue[4].ipv4.ip packetDropHopLimitReached:vector(packetBytes):min inf
scalar SingleCell.ue[4].ipv4.ip packetDropHopLimitReached:vector(packetBytes):max -inf
scalar SingleCell.ue[4].ipv4.ip packetDropHopLimitReached:vector(packetBytes):starttime nan
scalar SingleCell.ue[4].ipv4.ip packetDropHopLimitReached:vector(packetBytes):endtime nan
scalar SingleCell.ue[4].ipv4.ip packetDropForwardingDisabled:vector(packetBytes):count 0
scalar SingleCell.ue[4].ipv4.ip packetDropForwardingDisabled:vector(packetBytes):sum 0
scalar SingleCell.ue[4].ipv4.ip packetDropForwardingDisabled:vector(packetBytes):sumweights 0
scalar SingleCell.ue[4].ipv4.ip packetDropForwardingDisabled:vector(packetBytes):mean -nan
scalar SingleCell.ue[4].ipv4.ip packetDropForwardingDisabled:vector(packetBytes):stddev nan
scalar SingleCell.ue[4].ipv4.ip packetDropForwardingDisabled:vector(packetBytes):min inf
scalar SingleCell.ue[4].ipv4.ip packetDropForwardingDisabled:vector(packetBytes):max -inf
scalar SingleCell.ue[4].ipv4.ip packetDropForwardingDisabled:vector(packetBytes):starttime nan
scalar SingleCell.ue[4].ipv4.ip packetDropForwardingDisabled:vector(packetBytes):endtime nan
scalar SingleCell.ue[4].ipv4.ip packetDropNoInterfaceFound:vector(packetBytes):count 0
scalar SingleCell.ue[4].ipv4.ip packetDropNoInterfaceFound:vector(packetBytes):sum 0
scalar SingleCell.ue[4].ipv4.ip packetDropNoInterfaceFound:vector(packetBytes):sumweights 0
scalar SingleCell.ue[4].ipv4.ip packetDropNoInterfaceFound:vector(packetBytes):mean -nan
scalar SingleCell.ue[4].ipv4.ip packetDropNoInterfaceFound:vector(packetBytes):stddev nan
scalar SingleCell.ue[4].ipv4.ip packetDropNoInterfaceFound:vector(packetBytes):min inf
scalar SingleCell.ue[4].ipv4.ip packetDropNoInterfaceFound:vector(packetBytes):max -inf
scalar SingleCell.ue[4].ipv4.ip packetDropNoInterfaceFound:vector(packetBytes):starttime nan
scalar SingleCell.ue[4].ipv4.ip packetDropNoInterfaceFound:vector(packetBytes):endtime nan
scalar SingleCell.ue[4].ipv4.ip packetDropNoRouteFound:vector(packetBytes):count 0
scalar SingleCell.ue[4].ipv4.ip packetDropNoRouteFound:vector(packetBytes):sum 0
scalar SingleCell.ue[4].ipv4.ip packetDropNoRouteFound:vector(packetBytes):sumweights 0
scalar SingleCell.ue[4].ipv4.ip packetDropNoRouteFound:vector(packetBytes):mean -nan
scalar SingleCell.ue[4].ipv4.ip packetDropNoRouteFound:vector(packetBytes):stddev nan
scalar SingleCell.ue[4].ipv4.ip packetDropNoRouteFound:vector(packetBytes):min inf
scalar SingleCell.ue[4].ipv4.ip packetDropNoRouteFound:vector(packetBytes):max -inf
scalar SingleCell.ue[4].ipv4.ip packetDropNoRouteFound:vector(packetBytes):starttime nan
scalar SingleCell.ue[4].ipv4.ip packetDropNoRouteFound:vector(packetBytes):endtime nan
scalar SingleCell.ue[4].ipv4.ip packetDropUndefined:vector(packetBytes):count 0
scalar SingleCell.ue[4].ipv4.ip packetDropUndefined:vector(packetBytes):sum 0
scalar SingleCell.ue[4].ipv4.ip packetDropUndefined:vector(packetBytes):sumweights 0
scalar SingleCell.ue[4].ipv4.ip packetDropUndefined:vector(packetBytes):mean -nan
scalar SingleCell.ue[4].ipv4.ip packetDropUndefined:vector(packetBytes):stddev nan
scalar SingleCell.ue[4].ipv4.ip packetDropUndefined:vector(packetBytes):min inf
scalar SingleCell.ue[4].ipv4.ip packetDropUndefined:vector(packetBytes):max -inf
scalar SingleCell.ue[4].ipv4.ip packetDropUndefined:vector(packetBytes):starttime nan
scalar SingleCell.ue[4].ipv4.ip packetDropUndefined:vector(packetBytes):endtime nan
scalar SingleCell.ue[4].ipv4.arp arpRequestSent:vector(packetBytes):count 0
scalar SingleCell.ue[4].ipv4.arp arpRequestSent:vector(packetBytes):sum 0
scalar SingleCell.ue[4].ipv4.arp arpRequestSent:vector(packetBytes):sumweights 0
scalar SingleCell.ue[4].ipv4.arp arpRequestSent:vector(packetBytes):mean -nan
scalar SingleCell.ue[4].ipv4.arp arpRequestSent:vector(packetBytes):stddev nan
scalar SingleCell.ue[4].ipv4.arp arpRequestSent:vector(packetBytes):min inf
scalar SingleCell.ue[4].ipv4.arp arpRequestSent:vector(packetBytes):max -inf
scalar SingleCell.ue[4].ipv4.arp arpRequestSent:vector(packetBytes):starttime nan
scalar SingleCell.ue[4].ipv4.arp arpRequestSent:vector(packetBytes):endtime nan
scalar SingleCell.ue[4].ipv4.arp arpReplySent:vector(packetBytes):count 0
scalar SingleCell.ue[4].ipv4.arp arpReplySent:vector(packetBytes):sum 0
scalar SingleCell.ue[4].ipv4.arp arpReplySent:vector(packetBytes):sumweights 0
scalar SingleCell.ue[4].ipv4.arp arpReplySent:vector(packetBytes):mean -nan
scalar SingleCell.ue[4].ipv4.arp arpReplySent:vector(packetBytes):stddev nan
scalar SingleCell.ue[4].ipv4.arp arpReplySent:vector(packetBytes):min inf
scalar SingleCell.ue[4].ipv4.arp arpReplySent:vector(packetBytes):max -inf
scalar SingleCell.ue[4].ipv4.arp arpReplySent:vector(packetBytes):starttime nan
scalar SingleCell.ue[4].ipv4.arp arpReplySent:vector(packetBytes):endtime nan
scalar SingleCell.ue[4].udp packetSent:vector(packetBytes):count 0
scalar SingleCell.ue[4].udp packetSent:vector(packetBytes):sum 0
scalar SingleCell.ue[4].udp packetSent:vector(packetBytes):sumweights 0
scalar SingleCell.ue[4].udp packetSent:vector(packetBytes):mean -nan
scalar SingleCell.ue[4].udp packetSent:vector(packetBytes):stddev nan
scalar SingleCell.ue[4].udp packetSent:vector(packetBytes):min inf
scalar SingleCell.ue[4].udp packetSent:vector(packetBytes):max -inf
scalar SingleCell.ue[4].udp packetSent:vector(packetBytes):starttime nan
scalar SingleCell.ue[4].udp packetSent:vector(packetBytes):endtime nan
scalar SingleCell.ue[4].udp packetReceived:vector(packetBytes):count 612
scalar SingleCell.ue[4].udp packetReceived:vector(packetBytes):sum 29376
scalar SingleCell.ue[4].udp packetReceived:vector(packetBytes):sumweights 612
scalar SingleCell.ue[4].udp packetReceived:vector(packetBytes):mean 48
scalar SingleCell.ue[4].udp packetReceived:vector(packetBytes):stddev 0
scalar SingleCell.ue[4].udp packetReceived:vector(packetBytes):min 48
scalar SingleCell.ue[4].udp packetReceived:vector(packetBytes):max 48
scalar SingleCell.ue[4].udp packetReceived:vector(packetBytes):starttime 0.014999999999999999
scalar SingleCell.ue[4].udp packetReceived:vector(packetBytes):endtime 18.917000000000002
scalar SingleCell.ue[4].udp passedUpPk:vector(count):count 613
scalar SingleCell.ue[4].udp passedUpPk:vector(count):sum 187578
scalar SingleCell.ue[4].udp passedUpPk:vector(count):sumweights 613
scalar SingleCell.ue[4].udp passedUpPk:vector(count):mean 306
scalar SingleCell.ue[4].udp passedUpPk:vector(count):stddev 177.10213625664335
scalar SingleCell.ue[4].udp passedUpPk:vector(count):min 0
scalar SingleCell.ue[4].udp passedUpPk:vector(count):max 612
scalar SingleCell.ue[4].udp passedUpPk:vector(count):starttime 0
scalar SingleCell.ue[4].udp passedUpPk:vector(count):endtime 18.917000000000002
scalar SingleCell.ue[4].udp droppedPkWrongPort:vector(count):count 1
scalar SingleCell.ue[4].udp droppedPkWrongPort:vector(count):sum 0
scalar SingleCell.ue[4].udp droppedPkWrongPort:vector(count):sumweights 1
scalar SingleCell.ue[4].udp droppedPkWrongPort:vector(count):mean 0
scalar SingleCell.ue[4].udp droppedPkWrongPort:vector(count):stddev nan
scalar SingleCell.ue[4].udp droppedPkWrongPort:vector(count):min 0
scalar SingleCell.ue[4].udp droppedPkWrongPort:vector(count):max 0
scalar SingleCell.ue[4].udp droppedPkWrongPort:vector(count):starttime 0
scalar SingleCell.ue[4].udp droppedPkWrongPort:vector(count):endtime 0
scalar SingleCell.ue[4].udp droppedPkBadChecksum:vector(count):count 1
scalar SingleCell.ue[4].udp droppedPkBadChecksum:vector(count):sum 0
scalar SingleCell.ue[4].udp droppedPkBadChecksum:vector(count):sumweights 1
scalar SingleCell.ue[4].udp droppedPkBadChecksum:vector(count):mean 0
scalar SingleCell.ue[4].udp droppedPkBadChecksum:vector(count):stddev nan
scalar SingleCell.ue[4].udp droppedPkBadChecksum:vector(count):min 0
scalar SingleCell.ue[4].udp droppedPkBadChecksum:vector(count):max 0
scalar SingleCell.ue[4].udp droppedPkBadChecksum:vector(count):starttime 0
scalar SingleCell.ue[4].udp droppedPkBadChecksum:vector(count):endtime 0
scalar SingleCell.ue[4].app[0] voIPFrameDelay:vector:count 612
scalar SingleCell.ue[4].app[0] voIPFrameDelay:vector:sum 2.7841731993169825
scalar SingleCell.ue[4].app[0] voIPFrameDelay:vector:sumweights 612
scalar SingleCell.ue[4].app[0] voIPFrameDelay:vector:mean 0.0045493026132630435
scalar SingleCell.ue[4].app[0] voIPFrameDelay:vector:stddev 0.00049756820938217695
scalar SingleCell.ue[4].app[0] voIPFrameDelay:vector:min 0.0040144661519999998
scalar SingleCell.ue[4].app[0] voIPFrameDelay:vector:max 0.010295601337000001
scalar SingleCell.ue[4].app[0] voIPFrameDelay:vector:starttime 0.014999999999999999
scalar SingleCell.ue[4].app[0] voIPFrameDelay:vector:endtime 18.917000000000002
scalar SingleCell.ue[4].app[0] voIPReceivedThroughput:vector:count 612
scalar SingleCell.ue[4].app[0] voIPReceivedThroughput:vector:sum 712778.6785524888
scalar SingleCell.ue[4].app[0] voIPReceivedThroughput:vector:sumweights 612
scalar SingleCell.ue[4].app[0] voIPReceivedThroughput:vector:mean 1164.6710433864196
scalar SingleCell.ue[4].app[0] voIPReceivedThroughput:vector:stddev 271.73590934539578
scalar SingleCell.ue[4].app[0] voIPReceivedThroughput:vector:min 155.64202334630349
scalar SingleCell.ue[4].app[0] voIPReceivedThroughput:vector:max 2666.666666666667
scalar SingleCell.ue[4].app[0] voIPReceivedThroughput:vector:starttime 0.014999999999999999
scalar SingleCell.ue[4].app[0] voIPReceivedThroughput:vector:endtime 18.917000000000002

