version 3
run SchedulersTest-0-20260710-11:28:31-707470
attr configname SchedulersTest
attr datetime 20260710-11:28:31
attr datetimef 20260710-112831
attr experiment SchedulersTest
attr inifile omnetpp.ini
attr iterationvars "$sched=\"PF\", $numUEs=50, $pktSize=30B"
attr iterationvarsd sched=PF/numUEs=50/pktSize=30B
attr iterationvarsf sched=PF,numUEs=50,pktSize=30B-
attr measurement "$sched=\"PF\", $numUEs=50, $pktSize=30B"
attr network simu5g.simulations.lte.networks.SingleCell
attr processid 707470
attr repetition 0
attr replication #0
attr resultdir results
attr runnumber 0
attr seedset 0
itervar numUEs 50
itervar pktSize 30B
itervar sched "\"PF\""
config **.param-recording false
config image-path /home/andras/projects/Simu5G-fork/simu5g-fork/images
config output-scalar-file results/omnetpp.ini-SchedulersTest-#0.sca
config output-scalar-precision 17
config output-vector-file results/omnetpp.ini-SchedulersTest-#0.vec
config output-vector-precision 17
config record-eventlog false
config sim-time-limit 10s
config network simu5g.simulations.lte.networks.SingleCell
config sim-time-limit 10s
config repeat 1
config output-scalar-file "results/SchedulersTest/$sched=\"PF\", $numUEs=50, $pktSize=30B-0.sca"
config output-vector-file "results/SchedulersTest/$sched=\"PF\", $numUEs=50, $pktSize=30B-0.vec"
config seed-set 0
config **.ue[*].servingNodeId 1
config *.eNB.mobility.initFromDisplayString false
config *.eNB.mobility.initialX 0m
config *.eNB.mobility.initialY 0m
config **.schedulingDisciplineDl "\"PF\""
config **.numUe 50
config *.server.app[*].packetSize 30B
config *.server.numApps 50
config *.ue[*].mobility.initialMovementHeading "uniform(0deg, 360deg)"
config *.ue[*].mobility.constraintAreaMaxX 1000m
config *.ue[*].mobility.constraintAreaMaxY 1000m
config *.ue[*].mobility.constraintAreaMinX 0m
config *.ue[*].mobility.constraintAreaMinY 0m
config *.ue[*].mobility.initFromDisplayString false
config *.ue[*].mobility.initialX uniform(0m,300m)
config *.ue[*].mobility.initialY uniform(0m,300m)
config *.ue[*].mobility.initialZ 0m
config *.ue[*].mobility.speed 1mps
config *.ue[*].mobility.typename LinearMobility
config *.ue[*].app[*].typename VoipReceiver
config *.ue[*].app[0].localPort 3000
config *.server.app[*].destAddress "\"ue[\"+string(ancestorIndex(0))+\"]\""
config *.server.app[*].destPort 3000
config *.server.app[*].localPort 3088+ancestorIndex(0)
config *.server.app[*].typename VoipSender
config *.server.app[*].startTime uniform(0s,0.02s)
config sim-time-limit 20s
config output-scalar-file results/SchedulersTest/0.sca
config output-vector-file results/SchedulersTest/0.vec
config seed-set 0
config **.vector-recording false
config **.mobility.constraintAreaMinZ 0m
config **.mobility.constraintAreaMaxZ 0m
config **.mobility.initFromDisplayString true
config **.numBands 6
config **.ueTxPower 26dBm
config **.eNodeBTxPower 40dBm
config *.configurator.config "xmldoc(\"./demo.xml\")"

scalar SingleCell.server.lo[0].lo rcvdPkFromHl:count 0
scalar SingleCell.server.lo[0].lo rcvdPkFromHl:sum(packetBytes) 0
scalar SingleCell.server.lo[0].lo passedUpPk:count 0
scalar SingleCell.server.lo[0].lo passedUpPk:sum(packetBytes) 0
scalar SingleCell.server.lo[0] packetDropInterfaceDown:count 0
scalar SingleCell.server.lo[0] packetDropInterfaceDown:sum(packetBytes) 0
scalar SingleCell.server.lo[0] packetDropNoCarrier:count 0
scalar SingleCell.server.lo[0] packetDropNoCarrier:sum(packetBytes) 0
scalar SingleCell.server.ppp[0].queue queueLength:last 0
scalar SingleCell.server.ppp[0].queue queueLength:max 0
scalar SingleCell.server.ppp[0].queue queueLength:timeavg 0
scalar SingleCell.server.ppp[0].queue queueBitLength:last 0
scalar SingleCell.server.ppp[0].queue queueBitLength:max 0
scalar SingleCell.server.ppp[0].queue queueBitLength:timeavg 0
scalar SingleCell.server.ppp[0].queue outgoingPackets:count 16014
scalar SingleCell.server.ppp[0].queue outgoingPacketLengths:sum 7430496
scalar SingleCell.server.ppp[0].queue incomingPackets:count 16014
scalar SingleCell.server.ppp[0].queue incomingPacketLengths:sum 7430496
scalar SingleCell.server.ppp[0].queue droppedPacketsQueueOverflow:count 0
scalar SingleCell.server.ppp[0].queue droppedPacketLengthsQueueOverflow:sum 0
scalar SingleCell.server.ppp[0].ppp transmissionState:timeavg 8.3272799999972299e-05
scalar SingleCell.server.ppp[0].ppp rxPkOk:count 15973
scalar SingleCell.server.ppp[0].ppp rxPkOk:sum(packetBytes) 1006299
scalar SingleCell.server.ppp[0].ppp txPk:count 16014
scalar SingleCell.server.ppp[0].ppp txPk:sum(packetBytes) 1040910
scalar SingleCell.server.ppp[0].ppp rcvdPkFromHl:count 16014
scalar SingleCell.server.ppp[0].ppp rcvdPkFromHl:sum(packetBytes) 928812
scalar SingleCell.server.ppp[0].ppp passedUpPk:count 15973
scalar SingleCell.server.ppp[0].ppp passedUpPk:sum(packetBytes) 894488
scalar SingleCell.server.ppp[0].ppp packetDropIncorrectlyReceived:count 0
scalar SingleCell.server.ppp[0].ppp packetDropIncorrectlyReceived:sum(packetBytes) 0
scalar SingleCell.server.ppp[0].ppp packetDropInterfaceDown:count 0
scalar SingleCell.server.ppp[0].ppp packetDropInterfaceDown:sum(packetBytes) 0
scalar SingleCell.server.ppp[0] packetDropInterfaceDown:count 0
scalar SingleCell.server.ppp[0] packetDropInterfaceDown:sum(packetBytes) 0
scalar SingleCell.server.ppp[0] packetDropNoCarrier:count 0
scalar SingleCell.server.ppp[0] packetDropNoCarrier:sum(packetBytes) 0
scalar SingleCell.server.ipv4.ip packetDropAddressResolutionFailed:count 0
scalar SingleCell.server.ipv4.ip packetDropAddressResolutionFailed:sum(packetBytes) 0
scalar SingleCell.server.ipv4.ip packetDropHopLimitReached:count 0
scalar SingleCell.server.ipv4.ip packetDropHopLimitReached:sum(packetBytes) 0
scalar SingleCell.server.ipv4.ip packetDropForwardingDisabled:count 0
scalar SingleCell.server.ipv4.ip packetDropForwardingDisabled:sum(packetBytes) 0
scalar SingleCell.server.ipv4.ip packetDropNoInterfaceFound:count 0
scalar SingleCell.server.ipv4.ip packetDropNoInterfaceFound:sum(packetBytes) 0
scalar SingleCell.server.ipv4.ip packetDropNoRouteFound:count 0
scalar SingleCell.server.ipv4.ip packetDropNoRouteFound:sum(packetBytes) 0
scalar SingleCell.server.ipv4.ip packetDropUndefined:count 0
scalar SingleCell.server.ipv4.ip packetDropUndefined:sum(packetBytes) 0
scalar SingleCell.server.ipv4.arp arpResolutionFailed:count 0
scalar SingleCell.server.ipv4.arp arpResolutionCompleted:count 0
scalar SingleCell.server.ipv4.arp arpResolutionInitiated:count 0
scalar SingleCell.server.ipv4.arp arpReplySent:count 0
scalar SingleCell.server.ipv4.arp arpReplySent:sum(packetBytes) 0
scalar SingleCell.server.ipv4.arp arpRequestSent:count 0
scalar SingleCell.server.ipv4.arp arpRequestSent:sum(packetBytes) 0
scalar SingleCell.server.udp packetReceived:count 0
scalar SingleCell.server.udp packetReceived:sum(packetBytes) 0
scalar SingleCell.server.udp packetSent:count 16014
scalar SingleCell.server.udp packetSent:sum(packetBytes) 608532
scalar SingleCell.server.udp passedUpPk:count 0
scalar SingleCell.server.udp droppedPkWrongPort:count 0
scalar SingleCell.server.udp droppedPkBadChecksum:count 0
scalar SingleCell.server.app[0] voipGeneratedThroughput:simu5g_rateavg 1061.53670022595
scalar SingleCell.server.app[1] voipGeneratedThroughput:simu5g_rateavg 672.8765351411198
scalar SingleCell.server.app[2] voipGeneratedThroughput:simu5g_rateavg 861.88817683164666
scalar SingleCell.server.app[3] voipGeneratedThroughput:simu5g_rateavg 603.40610273720301
scalar SingleCell.server.app[4] voipGeneratedThroughput:simu5g_rateavg 1045.7827010772353
scalar SingleCell.server.app[5] voipGeneratedThroughput:simu5g_rateavg 838.7590195435339
scalar SingleCell.server.app[6] voipGeneratedThroughput:simu5g_rateavg 1177.3899475300918
scalar SingleCell.server.app[7] voipGeneratedThroughput:simu5g_rateavg 1201.9447466008414
scalar SingleCell.server.app[8] voipGeneratedThroughput:simu5g_rateavg 657.85499181974933
scalar SingleCell.server.app[9] voipGeneratedThroughput:simu5g_rateavg 1168.6898865344092
scalar SingleCell.server.app[10] voipGeneratedThroughput:simu5g_rateavg 975.56798996475879
scalar SingleCell.server.app[11] voipGeneratedThroughput:simu5g_rateavg 1161.5364980065779
scalar SingleCell.server.app[12] voipGeneratedThroughput:simu5g_rateavg 1193.1434568139455
scalar SingleCell.server.app[13] voipGeneratedThroughput:simu5g_rateavg 741.56026488329235
scalar SingleCell.server.app[14] voipGeneratedThroughput:simu5g_rateavg 840.62459549047173
scalar SingleCell.server.app[15] voipGeneratedThroughput:simu5g_rateavg 814.36159002146508
scalar SingleCell.server.app[16] voipGeneratedThroughput:simu5g_rateavg 549.6453946775589
scalar SingleCell.server.app[17] voipGeneratedThroughput:simu5g_rateavg 576.2534001744765
scalar SingleCell.server.app[18] voipGeneratedThroughput:simu5g_rateavg 1118.8251868033392
scalar SingleCell.server.app[19] voipGeneratedThroughput:simu5g_rateavg 682.20727249042841
scalar SingleCell.server.app[20] voipGeneratedThroughput:simu5g_rateavg 1107.1225719527035
scalar SingleCell.server.app[21] voipGeneratedThroughput:simu5g_rateavg 1003.4544023609432
scalar SingleCell.server.app[22] voipGeneratedThroughput:simu5g_rateavg 778.12663027410611
scalar SingleCell.server.app[23] voipGeneratedThroughput:simu5g_rateavg 1318.728452032921
scalar SingleCell.server.app[24] voipGeneratedThroughput:simu5g_rateavg 1172.2188740884221
scalar SingleCell.server.app[25] voipGeneratedThroughput:simu5g_rateavg 621.01796822409574
scalar SingleCell.server.app[26] voipGeneratedThroughput:simu5g_rateavg 1239.6891312237451
scalar SingleCell.server.app[27] voipGeneratedThroughput:simu5g_rateavg 581.89394832694438
scalar SingleCell.server.app[28] voipGeneratedThroughput:simu5g_rateavg 1409.6238747547479
scalar SingleCell.server.app[29] voipGeneratedThroughput:simu5g_rateavg 1224.3788348875037
scalar SingleCell.server.app[30] voipGeneratedThroughput:simu5g_rateavg 581.99089795343218
scalar SingleCell.server.app[31] voipGeneratedThroughput:simu5g_rateavg 535.92071327499809
scalar SingleCell.server.app[32] voipGeneratedThroughput:simu5g_rateavg 762.81723662208231
scalar SingleCell.server.app[33] voipGeneratedThroughput:simu5g_rateavg 556.4150609028942
scalar SingleCell.server.app[34] voipGeneratedThroughput:simu5g_rateavg 1298.5468809663826
scalar SingleCell.server.app[35] voipGeneratedThroughput:simu5g_rateavg 744.57888012792989
scalar SingleCell.server.app[36] voipGeneratedThroughput:simu5g_rateavg 986.97070900009214
scalar SingleCell.server.app[37] voipGeneratedThroughput:simu5g_rateavg 1075.4435269601245
scalar SingleCell.server.app[38] voipGeneratedThroughput:simu5g_rateavg 867.50724699967611
scalar SingleCell.server.app[39] voipGeneratedThroughput:simu5g_rateavg 807.94124137061078
scalar SingleCell.server.app[40] voipGeneratedThroughput:simu5g_rateavg 1143.1392707446196
scalar SingleCell.server.app[41] voipGeneratedThroughput:simu5g_rateavg 965.47828279792407
scalar SingleCell.server.app[42] voipGeneratedThroughput:simu5g_rateavg 788.32285239591613
scalar SingleCell.server.app[43] voipGeneratedThroughput:simu5g_rateavg 523.22413523430953
scalar SingleCell.server.app[44] voipGeneratedThroughput:simu5g_rateavg 1074.4611191058007
scalar SingleCell.server.app[45] voipGeneratedThroughput:simu5g_rateavg 1327.1244738292075
scalar SingleCell.server.app[46] voipGeneratedThroughput:simu5g_rateavg 1214.0913302827944
scalar SingleCell.server.app[47] voipGeneratedThroughput:simu5g_rateavg 1295.7908713126906
scalar SingleCell.server.app[48] voipGeneratedThroughput:simu5g_rateavg 809.37882194613417
scalar SingleCell.server.app[49] voipGeneratedThroughput:simu5g_rateavg 1326.2098829307026
scalar SingleCell.router.lo[0].lo rcvdPkFromHl:count 0
scalar SingleCell.router.lo[0].lo rcvdPkFromHl:sum(packetBytes) 0
scalar SingleCell.router.lo[0].lo passedUpPk:count 0
scalar SingleCell.router.lo[0].lo passedUpPk:sum(packetBytes) 0
scalar SingleCell.router.lo[0] packetDropInterfaceDown:count 0
scalar SingleCell.router.lo[0] packetDropInterfaceDown:sum(packetBytes) 0
scalar SingleCell.router.lo[0] packetDropNoCarrier:count 0
scalar SingleCell.router.lo[0] packetDropNoCarrier:sum(packetBytes) 0
scalar SingleCell.router.ppp[0].queue queueLength:last 0
scalar SingleCell.router.ppp[0].queue queueLength:max 0
scalar SingleCell.router.ppp[0].queue queueLength:timeavg 0
scalar SingleCell.router.ppp[0].queue queueBitLength:last 0
scalar SingleCell.router.ppp[0].queue queueBitLength:max 0
scalar SingleCell.router.ppp[0].queue queueBitLength:timeavg 0
scalar SingleCell.router.ppp[0].queue outgoingPackets:count 15973
scalar SingleCell.router.ppp[0].queue outgoingPacketLengths:sum 7155904
scalar SingleCell.router.ppp[0].queue incomingPackets:count 15973
scalar SingleCell.router.ppp[0].queue incomingPacketLengths:sum 7155904
scalar SingleCell.router.ppp[0].queue droppedPacketsQueueOverflow:count 0
scalar SingleCell.router.ppp[0].queue droppedPacketLengthsQueueOverflow:sum 0
scalar SingleCell.router.ppp[0].ppp transmissionState:timeavg 8.0503919999969122e-05
scalar SingleCell.router.ppp[0].ppp rxPkOk:count 16014
scalar SingleCell.router.ppp[0].ppp rxPkOk:sum(packetBytes) 1040910
scalar SingleCell.router.ppp[0].ppp txPk:count 15973
scalar SingleCell.router.ppp[0].ppp txPk:sum(packetBytes) 1006299
scalar SingleCell.router.ppp[0].ppp rcvdPkFromHl:count 15973
scalar SingleCell.router.ppp[0].ppp rcvdPkFromHl:sum(packetBytes) 894488
scalar SingleCell.router.ppp[0].ppp passedUpPk:count 16014
scalar SingleCell.router.ppp[0].ppp passedUpPk:sum(packetBytes) 928812
scalar SingleCell.router.ppp[0].ppp packetDropIncorrectlyReceived:count 0
scalar SingleCell.router.ppp[0].ppp packetDropIncorrectlyReceived:sum(packetBytes) 0
scalar SingleCell.router.ppp[0].ppp packetDropInterfaceDown:count 0
scalar SingleCell.router.ppp[0].ppp packetDropInterfaceDown:sum(packetBytes) 0
scalar SingleCell.router.ppp[0] packetDropInterfaceDown:count 0
scalar SingleCell.router.ppp[0] packetDropInterfaceDown:sum(packetBytes) 0
scalar SingleCell.router.ppp[0] packetDropNoCarrier:count 0
scalar SingleCell.router.ppp[0] packetDropNoCarrier:sum(packetBytes) 0
scalar SingleCell.router.ppp[1].queue queueLength:last 0
scalar SingleCell.router.ppp[1].queue queueLength:max 0
scalar SingleCell.router.ppp[1].queue queueLength:timeavg 0
scalar SingleCell.router.ppp[1].queue queueBitLength:last 0
scalar SingleCell.router.ppp[1].queue queueBitLength:max 0
scalar SingleCell.router.ppp[1].queue queueBitLength:timeavg 0
scalar SingleCell.router.ppp[1].queue outgoingPackets:count 16014
scalar SingleCell.router.ppp[1].queue outgoingPacketLengths:sum 7430496
scalar SingleCell.router.ppp[1].queue incomingPackets:count 16014
scalar SingleCell.router.ppp[1].queue incomingPacketLengths:sum 7430496
scalar SingleCell.router.ppp[1].queue droppedPacketsQueueOverflow:count 0
scalar SingleCell.router.ppp[1].queue droppedPacketLengthsQueueOverflow:sum 0
scalar SingleCell.router.ppp[1].ppp transmissionState:timeavg 8.3272799999972299e-05
scalar SingleCell.router.ppp[1].ppp rxPkOk:count 15973
scalar SingleCell.router.ppp[1].ppp rxPkOk:sum(packetBytes) 1006299
scalar SingleCell.router.ppp[1].ppp txPk:count 16014
scalar SingleCell.router.ppp[1].ppp txPk:sum(packetBytes) 1040910
scalar SingleCell.router.ppp[1].ppp rcvdPkFromHl:count 16014
scalar SingleCell.router.ppp[1].ppp rcvdPkFromHl:sum(packetBytes) 928812
scalar SingleCell.router.ppp[1].ppp passedUpPk:count 15973
scalar SingleCell.router.ppp[1].ppp passedUpPk:sum(packetBytes) 894488
scalar SingleCell.router.ppp[1].ppp packetDropIncorrectlyReceived:count 0
scalar SingleCell.router.ppp[1].ppp packetDropIncorrectlyReceived:sum(packetBytes) 0
scalar SingleCell.router.ppp[1].ppp packetDropInterfaceDown:count 0
scalar SingleCell.router.ppp[1].ppp packetDropInterfaceDown:sum(packetBytes) 0
scalar SingleCell.router.ppp[1] packetDropInterfaceDown:count 0
scalar SingleCell.router.ppp[1] packetDropInterfaceDown:sum(packetBytes) 0
scalar SingleCell.router.ppp[1] packetDropNoCarrier:count 0
scalar SingleCell.router.ppp[1] packetDropNoCarrier:sum(packetBytes) 0
scalar SingleCell.router.ipv4.ip packetDropAddressResolutionFailed:count 0
scalar SingleCell.router.ipv4.ip packetDropAddressResolutionFailed:sum(packetBytes) 0
scalar SingleCell.router.ipv4.ip packetDropHopLimitReached:count 0
scalar SingleCell.router.ipv4.ip packetDropHopLimitReached:sum(packetBytes) 0
scalar SingleCell.router.ipv4.ip packetDropForwardingDisabled:count 0
scalar SingleCell.router.ipv4.ip packetDropForwardingDisabled:sum(packetBytes) 0
scalar SingleCell.router.ipv4.ip packetDropNoInterfaceFound:count 0
scalar SingleCell.router.ipv4.ip packetDropNoInterfaceFound:sum(packetBytes) 0
scalar SingleCell.router.ipv4.ip packetDropNoRouteFound:count 0
scalar SingleCell.router.ipv4.ip packetDropNoRouteFound:sum(packetBytes) 0
scalar SingleCell.router.ipv4.ip packetDropUndefined:count 0
scalar SingleCell.router.ipv4.ip packetDropUndefined:sum(packetBytes) 0
scalar SingleCell.router.ipv4.arp arpResolutionFailed:count 0
scalar SingleCell.router.ipv4.arp arpResolutionCompleted:count 0
scalar SingleCell.router.ipv4.arp arpResolutionInitiated:count 0
scalar SingleCell.router.ipv4.arp arpReplySent:count 0
scalar SingleCell.router.ipv4.arp arpReplySent:sum(packetBytes) 0
scalar SingleCell.router.ipv4.arp arpRequestSent:count 0
scalar SingleCell.router.ipv4.arp arpRequestSent:sum(packetBytes) 0
scalar SingleCell.pgw.lo[0].lo rcvdPkFromHl:count 0
scalar SingleCell.pgw.lo[0].lo rcvdPkFromHl:sum(packetBytes) 0
scalar SingleCell.pgw.lo[0].lo passedUpPk:count 0
scalar SingleCell.pgw.lo[0].lo passedUpPk:sum(packetBytes) 0
scalar SingleCell.pgw.lo[0] packetDropInterfaceDown:count 0
scalar SingleCell.pgw.lo[0] packetDropInterfaceDown:sum(packetBytes) 0
scalar SingleCell.pgw.lo[0] packetDropNoCarrier:count 0
scalar SingleCell.pgw.lo[0] packetDropNoCarrier:sum(packetBytes) 0
scalar SingleCell.pgw.ppp[0].queue queueLength:last 0
scalar SingleCell.pgw.ppp[0].queue queueLength:max 0
scalar SingleCell.pgw.ppp[0].queue queueLength:timeavg 0
scalar SingleCell.pgw.ppp[0].queue queueBitLength:last 0
scalar SingleCell.pgw.ppp[0].queue queueBitLength:max 0
scalar SingleCell.pgw.ppp[0].queue queueBitLength:timeavg 0
scalar SingleCell.pgw.ppp[0].queue outgoingPackets:count 16014
scalar SingleCell.pgw.ppp[0].queue outgoingPacketLengths:sum 12042528
scalar SingleCell.pgw.ppp[0].queue incomingPackets:count 16014
scalar SingleCell.pgw.ppp[0].queue incomingPacketLengths:sum 12042528
scalar SingleCell.pgw.ppp[0].queue droppedPacketsQueueOverflow:count 0
scalar SingleCell.pgw.ppp[0].queue droppedPacketLengthsQueueOverflow:sum 0
scalar SingleCell.pgw.ppp[0].ppp transmissionState:timeavg 0.00012939312000001711
scalar SingleCell.pgw.ppp[0].ppp rxPkOk:count 15973
scalar SingleCell.pgw.ppp[0].ppp rxPkOk:sum(packetBytes) 1581327
scalar SingleCell.pgw.ppp[0].ppp txPk:count 16014
scalar SingleCell.pgw.ppp[0].ppp txPk:sum(packetBytes) 1617414
scalar SingleCell.pgw.ppp[0].ppp rcvdPkFromHl:count 16014
scalar SingleCell.pgw.ppp[0].ppp rcvdPkFromHl:sum(packetBytes) 1505316
scalar SingleCell.pgw.ppp[0].ppp passedUpPk:count 15973
scalar SingleCell.pgw.ppp[0].ppp passedUpPk:sum(packetBytes) 1469516
scalar SingleCell.pgw.ppp[0].ppp packetDropIncorrectlyReceived:count 0
scalar SingleCell.pgw.ppp[0].ppp packetDropIncorrectlyReceived:sum(packetBytes) 0
scalar SingleCell.pgw.ppp[0].ppp packetDropInterfaceDown:count 0
scalar SingleCell.pgw.ppp[0].ppp packetDropInterfaceDown:sum(packetBytes) 0
scalar SingleCell.pgw.ppp[0] packetDropInterfaceDown:count 0
scalar SingleCell.pgw.ppp[0] packetDropInterfaceDown:sum(packetBytes) 0
scalar SingleCell.pgw.ppp[0] packetDropNoCarrier:count 0
scalar SingleCell.pgw.ppp[0] packetDropNoCarrier:sum(packetBytes) 0
scalar SingleCell.pgw.ipv4.ip packetDropAddressResolutionFailed:count 0
scalar SingleCell.pgw.ipv4.ip packetDropAddressResolutionFailed:sum(packetBytes) 0
scalar SingleCell.pgw.ipv4.ip packetDropHopLimitReached:count 0
scalar SingleCell.pgw.ipv4.ip packetDropHopLimitReached:sum(packetBytes) 0
scalar SingleCell.pgw.ipv4.ip packetDropForwardingDisabled:count 0
scalar SingleCell.pgw.ipv4.ip packetDropForwardingDisabled:sum(packetBytes) 0
scalar SingleCell.pgw.ipv4.ip packetDropNoInterfaceFound:count 0
scalar SingleCell.pgw.ipv4.ip packetDropNoInterfaceFound:sum(packetBytes) 0
scalar SingleCell.pgw.ipv4.ip packetDropNoRouteFound:count 0
scalar SingleCell.pgw.ipv4.ip packetDropNoRouteFound:sum(packetBytes) 0
scalar SingleCell.pgw.ipv4.ip packetDropUndefined:count 0
scalar SingleCell.pgw.ipv4.ip packetDropUndefined:sum(packetBytes) 0
scalar SingleCell.pgw.ipv4.arp arpResolutionFailed:count 0
scalar SingleCell.pgw.ipv4.arp arpResolutionCompleted:count 0
scalar SingleCell.pgw.ipv4.arp arpResolutionInitiated:count 0
scalar SingleCell.pgw.ipv4.arp arpReplySent:count 0
scalar SingleCell.pgw.ipv4.arp arpReplySent:sum(packetBytes) 0
scalar SingleCell.pgw.ipv4.arp arpRequestSent:count 0
scalar SingleCell.pgw.ipv4.arp arpRequestSent:sum(packetBytes) 0
scalar SingleCell.pgw.pppIf.queue queueLength:last 0
scalar SingleCell.pgw.pppIf.queue queueLength:max 0
scalar SingleCell.pgw.pppIf.queue queueLength:timeavg 0
scalar SingleCell.pgw.pppIf.queue queueBitLength:last 0
scalar SingleCell.pgw.pppIf.queue queueBitLength:max 0
scalar SingleCell.pgw.pppIf.queue queueBitLength:timeavg 0
scalar SingleCell.pgw.pppIf.queue outgoingPackets:count 15973
scalar SingleCell.pgw.pppIf.queue outgoingPacketLengths:sum 7155904
scalar SingleCell.pgw.pppIf.queue incomingPackets:count 15973
scalar SingleCell.pgw.pppIf.queue incomingPacketLengths:sum 7155904
scalar SingleCell.pgw.pppIf.queue droppedPacketsQueueOverflow:count 0
scalar SingleCell.pgw.pppIf.queue droppedPacketLengthsQueueOverflow:sum 0
scalar SingleCell.pgw.pppIf.ppp transmissionState:timeavg 8.0503919999969122e-05
scalar SingleCell.pgw.pppIf.ppp rxPkOk:count 16014
scalar SingleCell.pgw.pppIf.ppp rxPkOk:sum(packetBytes) 1040910
scalar SingleCell.pgw.pppIf.ppp txPk:count 15973
scalar SingleCell.pgw.pppIf.ppp txPk:sum(packetBytes) 1006299
scalar SingleCell.pgw.pppIf.ppp rcvdPkFromHl:count 15973
scalar SingleCell.pgw.pppIf.ppp rcvdPkFromHl:sum(packetBytes) 894488
scalar SingleCell.pgw.pppIf.ppp passedUpPk:count 16014
scalar SingleCell.pgw.pppIf.ppp passedUpPk:sum(packetBytes) 928812
scalar SingleCell.pgw.pppIf.ppp packetDropIncorrectlyReceived:count 0
scalar SingleCell.pgw.pppIf.ppp packetDropIncorrectlyReceived:sum(packetBytes) 0
scalar SingleCell.pgw.pppIf.ppp packetDropInterfaceDown:count 0
scalar SingleCell.pgw.pppIf.ppp packetDropInterfaceDown:sum(packetBytes) 0
scalar SingleCell.pgw.pppIf packetDropInterfaceDown:count 0
scalar SingleCell.pgw.pppIf packetDropInterfaceDown:sum(packetBytes) 0
scalar SingleCell.pgw.pppIf packetDropNoCarrier:count 0
scalar SingleCell.pgw.pppIf packetDropNoCarrier:sum(packetBytes) 0
scalar SingleCell.pgw.udp packetReceived:count 15973
scalar SingleCell.pgw.udp packetReceived:sum(packetBytes) 1150056
scalar SingleCell.pgw.udp packetSent:count 16014
scalar SingleCell.pgw.udp packetSent:sum(packetBytes) 1185036
scalar SingleCell.pgw.udp passedUpPk:count 15973
scalar SingleCell.pgw.udp droppedPkWrongPort:count 0
scalar SingleCell.pgw.udp droppedPkBadChecksum:count 0
scalar SingleCell.eNB.cellularNic.pdcp sentPacketToLowerLayer:count 16014
scalar SingleCell.eNB.cellularNic.pdcp sentPacketToLowerLayer:sum(packetBytes) 944826
scalar SingleCell.eNB.cellularNic.pdcp sentPacketToUpperLayer:count 15975
scalar SingleCell.eNB.cellularNic.pdcp sentPacketToUpperLayer:sum(packetBytes) 894600
scalar SingleCell.eNB.cellularNic.pdcp receivedPacketFromLowerLayer:count 15975
scalar SingleCell.eNB.cellularNic.pdcp receivedPacketFromLowerLayer:sum(packetBytes) 910575
scalar SingleCell.eNB.cellularNic.pdcp receivedPacketFromUpperLayer:count 16014
scalar SingleCell.eNB.cellularNic.pdcp receivedPacketFromUpperLayer:sum(packetBytes) 928812
scalar SingleCell.eNB.cellularNic.rlc.tm rlcPacketLossUl:mean -nan
scalar SingleCell.eNB.cellularNic.rlc.tm rlcPacketLossUl:sum 0
scalar SingleCell.eNB.cellularNic.rlc.tm rlcPacketLossDl:mean -nan
scalar SingleCell.eNB.cellularNic.rlc.tm rlcPacketLossDl:sum 0
scalar SingleCell.eNB.cellularNic.rlc.tm sentPacketToLowerLayer:count 0
scalar SingleCell.eNB.cellularNic.rlc.tm sentPacketToLowerLayer:sum(packetBytes) 0
scalar SingleCell.eNB.cellularNic.rlc.tm sentPacketToUpperLayer:count 0
scalar SingleCell.eNB.cellularNic.rlc.tm sentPacketToUpperLayer:sum(packetBytes) 0
scalar SingleCell.eNB.cellularNic.rlc.tm receivedPacketFromLowerLayer:count 0
scalar SingleCell.eNB.cellularNic.rlc.tm receivedPacketFromLowerLayer:sum(packetBytes) 0
scalar SingleCell.eNB.cellularNic.rlc.tm receivedPacketFromUpperLayer:count 0
scalar SingleCell.eNB.cellularNic.rlc.tm receivedPacketFromUpperLayer:sum(packetBytes) 0
scalar SingleCell.eNB.cellularNic.rlc.um rlcCellThroughputUl:simu5g_rateavg 187880.55333466292
scalar SingleCell.eNB.cellularNic.rlc.um rlcCellThroughputDl:simu5g_rateavg 187846.71454748363
scalar SingleCell.eNB.cellularNic.rlc.um rlcPduThroughputUl:simu5g_rateavg -nan
scalar SingleCell.eNB.cellularNic.rlc.um rlcPduThroughputDl:simu5g_rateavg -nan
scalar SingleCell.eNB.cellularNic.rlc.um rlcPduDelayUl:mean -nan
scalar SingleCell.eNB.cellularNic.rlc.um rlcPduDelayDl:mean -nan
scalar SingleCell.eNB.cellularNic.rlc.um rlcThroughputUl:simu5g_rateavg -nan
scalar SingleCell.eNB.cellularNic.rlc.um rlcThroughputDl:simu5g_rateavg -nan
scalar SingleCell.eNB.cellularNic.rlc.um rlcDelayUl:mean -nan
scalar SingleCell.eNB.cellularNic.rlc.um rlcDelayDl:mean -nan
scalar SingleCell.eNB.cellularNic.rlc.um sentPacketToLowerLayer:count 16030
scalar SingleCell.eNB.cellularNic.rlc.um sentPacketToLowerLayer:sum(packetBytes) 976886
scalar SingleCell.eNB.cellularNic.rlc.um sentPacketToUpperLayer:count 15975
scalar SingleCell.eNB.cellularNic.rlc.um sentPacketToUpperLayer:sum(packetBytes) 910575
scalar SingleCell.eNB.cellularNic.rlc.um receivedPacketFromLowerLayer:count 18662
scalar SingleCell.eNB.cellularNic.rlc.um receivedPacketFromLowerLayer:sum(packetBytes) 948738
scalar SingleCell.eNB.cellularNic.rlc.um receivedPacketFromUpperLayer:count 16014
scalar SingleCell.eNB.cellularNic.rlc.um receivedPacketFromUpperLayer:sum(packetBytes) 944826
scalar SingleCell.eNB.cellularNic.rlc.am rlcPacketLossTotal:mean -nan
scalar SingleCell.eNB.cellularNic.rlc.am rlcCellThroughputUl:simu5g_rateavg -nan
scalar SingleCell.eNB.cellularNic.rlc.am rlcCellThroughputDl:simu5g_rateavg -nan
scalar SingleCell.eNB.cellularNic.rlc.am rlcPduThroughputUl:simu5g_rateavg -nan
scalar SingleCell.eNB.cellularNic.rlc.am rlcPduThroughputDl:simu5g_rateavg -nan
scalar SingleCell.eNB.cellularNic.rlc.am rlcPduDelayUl:mean -nan
scalar SingleCell.eNB.cellularNic.rlc.am rlcPduDelayDl:mean -nan
scalar SingleCell.eNB.cellularNic.rlc.am rlcThroughputUl:simu5g_rateavg -nan
scalar SingleCell.eNB.cellularNic.rlc.am rlcThroughputDl:simu5g_rateavg -nan
scalar SingleCell.eNB.cellularNic.rlc.am rlcDelayUl:mean -nan
scalar SingleCell.eNB.cellularNic.rlc.am rlcDelayDl:mean -nan
scalar SingleCell.eNB.cellularNic.rlc.am rlcPduPacketLossUl:mean -nan
scalar SingleCell.eNB.cellularNic.rlc.am rlcPduPacketLossDl:mean -nan
scalar SingleCell.eNB.cellularNic.rlc.am rlcPacketLossUl:mean -nan
scalar SingleCell.eNB.cellularNic.rlc.am rlcPacketLossDl:mean -nan
scalar SingleCell.eNB.cellularNic.rlc.am rlcCellPacketLossUl:mean -nan
scalar SingleCell.eNB.cellularNic.rlc.am rlcCellPacketLossDl:mean -nan
scalar SingleCell.eNB.cellularNic.mac avgServedBlocksUl:mean 2.0699000000000001
scalar SingleCell.eNB.cellularNic.mac avgServedBlocksDl:mean 1.6509
scalar SingleCell.eNB.cellularNic.mac harqTxAttemptsUl:mean -nan
scalar SingleCell.eNB.cellularNic.mac harqTxAttemptsDl:mean -nan
scalar SingleCell.eNB.cellularNic.mac harqErrorRate_4th_Ul:mean -nan
scalar SingleCell.eNB.cellularNic.mac harqErrorRate_4th_Dl:mean -nan
scalar SingleCell.eNB.cellularNic.mac harqErrorRate_3rd_Ul:mean -nan
scalar SingleCell.eNB.cellularNic.mac harqErrorRate_3rd_Dl:mean -nan
scalar SingleCell.eNB.cellularNic.mac harqErrorRate_2nd_Ul:mean -nan
scalar SingleCell.eNB.cellularNic.mac harqErrorRate_2nd_Dl:mean -nan
scalar SingleCell.eNB.cellularNic.mac harqErrorRate_1st_Ul:mean -nan
scalar SingleCell.eNB.cellularNic.mac harqErrorRate_1st_Dl:mean -nan
scalar SingleCell.eNB.cellularNic.mac harqErrorRateUl:mean -nan
scalar SingleCell.eNB.cellularNic.mac harqErrorRateDl:mean -nan
scalar SingleCell.eNB.cellularNic.mac macCellPacketLossUl:mean 0
scalar SingleCell.eNB.cellularNic.mac macCellPacketLossDl:mean 0
scalar SingleCell.eNB.cellularNic.mac macPacketLossUl:mean -nan
scalar SingleCell.eNB.cellularNic.mac macPacketLossDl:mean -nan
scalar SingleCell.eNB.cellularNic.mac macThroughputUl:simu5g_rateavg -nan
scalar SingleCell.eNB.cellularNic.mac macThroughputDl:simu5g_rateavg -nan
scalar SingleCell.eNB.cellularNic.mac macDelayUl:mean -nan
scalar SingleCell.eNB.cellularNic.mac macDelayDl:mean -nan
scalar SingleCell.eNB.cellularNic.mac macCellThroughputUl:simu5g_rateavg 202092.46292982859
scalar SingleCell.eNB.cellularNic.mac macCellThroughputDl:simu5g_rateavg 202062.30991481157
scalar SingleCell.eNB.cellularNic.mac sentPacketToLowerLayer:count 70638
scalar SingleCell.eNB.cellularNic.mac sentPacketToLowerLayer:sum(packetBytes) 1074280
scalar SingleCell.eNB.cellularNic.mac sentPacketToUpperLayer:count 34692
scalar SingleCell.eNB.cellularNic.mac sentPacketToUpperLayer:sum(packetBytes) 964768
scalar SingleCell.eNB.cellularNic.mac receivedPacketFromLowerLayer:count 135019
scalar SingleCell.eNB.cellularNic.mac receivedPacketFromLowerLayer:sum(packetBytes) 1116321
scalar SingleCell.eNB.cellularNic.mac receivedPacketFromUpperLayer:count 32044
scalar SingleCell.eNB.cellularNic.mac receivedPacketFromUpperLayer:sum(packetBytes) 1921712
scalar SingleCell.eNB.cellularNic.mac macBufferOverFlowD2D:mean -nan
scalar SingleCell.eNB.cellularNic.mac macBufferOverFlowUl:mean -nan
scalar SingleCell.eNB.cellularNic.mac macBufferOverFlowDl:mean -nan
scalar SingleCell.eNB.cellularNic.channelModel[0] measuredSinrUl:mean -nan
scalar SingleCell.eNB.cellularNic.channelModel[0] measuredSinrDl:mean -nan
scalar SingleCell.eNB.cellularNic.channelModel[0] rcvdSinrD2D:mean -nan
scalar SingleCell.eNB.cellularNic.channelModel[0] rcvdSinrUl:mean -nan
scalar SingleCell.eNB.cellularNic.channelModel[0] rcvdSinrDl:mean -nan
scalar SingleCell.eNB.cellularNic packetDropInterfaceDown:count 0
scalar SingleCell.eNB.cellularNic packetDropInterfaceDown:sum(packetBytes) 0
scalar SingleCell.eNB.cellularNic packetDropNoCarrier:count 0
scalar SingleCell.eNB.cellularNic packetDropNoCarrier:sum(packetBytes) 0
scalar SingleCell.eNB.pppIf.queue queueLength:last 1
scalar SingleCell.eNB.pppIf.queue queueLength:max 18
scalar SingleCell.eNB.pppIf.queue queueLength:timeavg 9.7938720000008761e-05
scalar SingleCell.eNB.pppIf.queue queueBitLength:last 736
scalar SingleCell.eNB.pppIf.queue queueBitLength:max 13248
scalar SingleCell.eNB.pppIf.queue queueBitLength:timeavg 0.072082897920004343
scalar SingleCell.eNB.pppIf.queue outgoingPackets:count 15974
scalar SingleCell.eNB.pppIf.queue outgoingPacketLengths:sum 11756864
scalar SingleCell.eNB.pppIf.queue incomingPackets:count 15975
scalar SingleCell.eNB.pppIf.queue incomingPacketLengths:sum 11757600
scalar SingleCell.eNB.pppIf.queue droppedPacketsQueueOverflow:count 0
scalar SingleCell.eNB.pppIf.queue droppedPacketLengthsQueueOverflow:sum 0
scalar SingleCell.eNB.pppIf.ppp transmissionState:timeavg 0.00012650615999997616
scalar SingleCell.eNB.pppIf.ppp rxPkOk:count 16014
scalar SingleCell.eNB.pppIf.ppp rxPkOk:sum(packetBytes) 1617414
scalar SingleCell.eNB.pppIf.ppp txPk:count 15974
scalar SingleCell.eNB.pppIf.ppp txPk:sum(packetBytes) 1581426
scalar SingleCell.eNB.pppIf.ppp rcvdPkFromHl:count 15974
scalar SingleCell.eNB.pppIf.ppp rcvdPkFromHl:sum(packetBytes) 1469608
scalar SingleCell.eNB.pppIf.ppp passedUpPk:count 16014
scalar SingleCell.eNB.pppIf.ppp passedUpPk:sum(packetBytes) 1505316
scalar SingleCell.eNB.pppIf.ppp packetDropIncorrectlyReceived:count 0
scalar SingleCell.eNB.pppIf.ppp packetDropIncorrectlyReceived:sum(packetBytes) 0
scalar SingleCell.eNB.pppIf.ppp packetDropInterfaceDown:count 0
scalar SingleCell.eNB.pppIf.ppp packetDropInterfaceDown:sum(packetBytes) 0
scalar SingleCell.eNB.pppIf packetDropInterfaceDown:count 0
scalar SingleCell.eNB.pppIf packetDropInterfaceDown:sum(packetBytes) 0
scalar SingleCell.eNB.pppIf packetDropNoCarrier:count 0
scalar SingleCell.eNB.pppIf packetDropNoCarrier:sum(packetBytes) 0
scalar SingleCell.eNB.pppMEHostIf.queue queueLength:last 0
scalar SingleCell.eNB.pppMEHostIf.queue queueLength:max 0
scalar SingleCell.eNB.pppMEHostIf.queue queueLength:timeavg 0
scalar SingleCell.eNB.pppMEHostIf.queue queueBitLength:last 0
scalar SingleCell.eNB.pppMEHostIf.queue queueBitLength:max 0
scalar SingleCell.eNB.pppMEHostIf.queue queueBitLength:timeavg 0
scalar SingleCell.eNB.pppMEHostIf.queue outgoingPackets:count 0
scalar SingleCell.eNB.pppMEHostIf.queue outgoingPacketLengths:sum 0
scalar SingleCell.eNB.pppMEHostIf.queue incomingPackets:count 0
scalar SingleCell.eNB.pppMEHostIf.queue incomingPacketLengths:sum 0
scalar SingleCell.eNB.pppMEHostIf.queue droppedPacketsQueueOverflow:count 0
scalar SingleCell.eNB.pppMEHostIf.queue droppedPacketLengthsQueueOverflow:sum 0
scalar SingleCell.eNB.pppMEHostIf.ppp transmissionState:timeavg 0
scalar SingleCell.eNB.pppMEHostIf.ppp rxPkOk:count 0
scalar SingleCell.eNB.pppMEHostIf.ppp rxPkOk:sum(packetBytes) 0
scalar SingleCell.eNB.pppMEHostIf.ppp txPk:count 0
scalar SingleCell.eNB.pppMEHostIf.ppp txPk:sum(packetBytes) 0
scalar SingleCell.eNB.pppMEHostIf.ppp rcvdPkFromHl:count 0
scalar SingleCell.eNB.pppMEHostIf.ppp rcvdPkFromHl:sum(packetBytes) 0
scalar SingleCell.eNB.pppMEHostIf.ppp passedUpPk:count 0
scalar SingleCell.eNB.pppMEHostIf.ppp passedUpPk:sum(packetBytes) 0
scalar SingleCell.eNB.pppMEHostIf.ppp packetDropIncorrectlyReceived:count 0
scalar SingleCell.eNB.pppMEHostIf.ppp packetDropIncorrectlyReceived:sum(packetBytes) 0
scalar SingleCell.eNB.pppMEHostIf.ppp packetDropInterfaceDown:count 0
scalar SingleCell.eNB.pppMEHostIf.ppp packetDropInterfaceDown:sum(packetBytes) 0
scalar SingleCell.eNB.pppMEHostIf packetDropInterfaceDown:count 0
scalar SingleCell.eNB.pppMEHostIf packetDropInterfaceDown:sum(packetBytes) 0
scalar SingleCell.eNB.pppMEHostIf packetDropNoCarrier:count 0
scalar SingleCell.eNB.pppMEHostIf packetDropNoCarrier:sum(packetBytes) 0
scalar SingleCell.eNB.ipv4.ip packetDropAddressResolutionFailed:count 0
scalar SingleCell.eNB.ipv4.ip packetDropAddressResolutionFailed:sum(packetBytes) 0
scalar SingleCell.eNB.ipv4.ip packetDropHopLimitReached:count 0
scalar SingleCell.eNB.ipv4.ip packetDropHopLimitReached:sum(packetBytes) 0
scalar SingleCell.eNB.ipv4.ip packetDropForwardingDisabled:count 0
scalar SingleCell.eNB.ipv4.ip packetDropForwardingDisabled:sum(packetBytes) 0
scalar SingleCell.eNB.ipv4.ip packetDropNoInterfaceFound:count 0
scalar SingleCell.eNB.ipv4.ip packetDropNoInterfaceFound:sum(packetBytes) 0
scalar SingleCell.eNB.ipv4.ip packetDropNoRouteFound:count 0
scalar SingleCell.eNB.ipv4.ip packetDropNoRouteFound:sum(packetBytes) 0
scalar SingleCell.eNB.ipv4.ip packetDropUndefined:count 0
scalar SingleCell.eNB.ipv4.ip packetDropUndefined:sum(packetBytes) 0
scalar SingleCell.eNB.ipv4.arp arpResolutionFailed:count 0
scalar SingleCell.eNB.ipv4.arp arpResolutionCompleted:count 0
scalar SingleCell.eNB.ipv4.arp arpResolutionInitiated:count 0
scalar SingleCell.eNB.ipv4.arp arpReplySent:count 0
scalar SingleCell.eNB.ipv4.arp arpReplySent:sum(packetBytes) 0
scalar SingleCell.eNB.ipv4.arp arpRequestSent:count 0
scalar SingleCell.eNB.ipv4.arp arpRequestSent:sum(packetBytes) 0
scalar SingleCell.eNB.udp packetReceived:count 16014
scalar SingleCell.eNB.udp packetReceived:sum(packetBytes) 1185036
scalar SingleCell.eNB.udp packetSent:count 15975
scalar SingleCell.eNB.udp packetSent:sum(packetBytes) 1150200
scalar SingleCell.eNB.udp passedUpPk:count 16014
scalar SingleCell.eNB.udp droppedPkWrongPort:count 0
scalar SingleCell.eNB.udp droppedPkBadChecksum:count 0
scalar SingleCell.ue[0].lo[0].lo rcvdPkFromHl:count 0
scalar SingleCell.ue[0].lo[0].lo rcvdPkFromHl:sum(packetBytes) 0
scalar SingleCell.ue[0].lo[0].lo passedUpPk:count 0
scalar SingleCell.ue[0].lo[0].lo passedUpPk:sum(packetBytes) 0
scalar SingleCell.ue[0].lo[0] packetDropInterfaceDown:count 0
scalar SingleCell.ue[0].lo[0] packetDropInterfaceDown:sum(packetBytes) 0
scalar SingleCell.ue[0].lo[0] packetDropNoCarrier:count 0
scalar SingleCell.ue[0].lo[0] packetDropNoCarrier:sum(packetBytes) 0
scalar SingleCell.ue[0].cellularNic.pdcp sentPacketToLowerLayer:count 381
scalar SingleCell.ue[0].cellularNic.pdcp sentPacketToLowerLayer:sum(packetBytes) 21717
scalar SingleCell.ue[0].cellularNic.pdcp sentPacketToUpperLayer:count 381
scalar SingleCell.ue[0].cellularNic.pdcp sentPacketToUpperLayer:sum(packetBytes) 22098
scalar SingleCell.ue[0].cellularNic.pdcp receivedPacketFromLowerLayer:count 381
scalar SingleCell.ue[0].cellularNic.pdcp receivedPacketFromLowerLayer:sum(packetBytes) 22479
scalar SingleCell.ue[0].cellularNic.pdcp receivedPacketFromUpperLayer:count 381
scalar SingleCell.ue[0].cellularNic.pdcp receivedPacketFromUpperLayer:sum(packetBytes) 21336
scalar SingleCell.ue[0].cellularNic.rlc.tm rlcPacketLossUl:mean -nan
scalar SingleCell.ue[0].cellularNic.rlc.tm rlcPacketLossUl:sum 0
scalar SingleCell.ue[0].cellularNic.rlc.tm rlcPacketLossDl:mean -nan
scalar SingleCell.ue[0].cellularNic.rlc.tm rlcPacketLossDl:sum 0
scalar SingleCell.ue[0].cellularNic.rlc.tm sentPacketToLowerLayer:count 0
scalar SingleCell.ue[0].cellularNic.rlc.tm sentPacketToLowerLayer:sum(packetBytes) 0
scalar SingleCell.ue[0].cellularNic.rlc.tm sentPacketToUpperLayer:count 0
scalar SingleCell.ue[0].cellularNic.rlc.tm sentPacketToUpperLayer:sum(packetBytes) 0
scalar SingleCell.ue[0].cellularNic.rlc.tm receivedPacketFromLowerLayer:count 0
scalar SingleCell.ue[0].cellularNic.rlc.tm receivedPacketFromLowerLayer:sum(packetBytes) 0
scalar SingleCell.ue[0].cellularNic.rlc.tm receivedPacketFromUpperLayer:count 0
scalar SingleCell.ue[0].cellularNic.rlc.tm receivedPacketFromUpperLayer:sum(packetBytes) 0
scalar SingleCell.ue[0].cellularNic.rlc.um rlcCellThroughputUl:simu5g_rateavg -nan
scalar SingleCell.ue[0].cellularNic.rlc.um rlcCellThroughputDl:simu5g_rateavg -nan
scalar SingleCell.ue[0].cellularNic.rlc.um rlcPduThroughputUl:simu5g_rateavg 0
scalar SingleCell.ue[0].cellularNic.rlc.um rlcPduThroughputDl:simu5g_rateavg 0
scalar SingleCell.ue[0].cellularNic.rlc.um rlcPduDelayUl:mean 0.0041049868766404232
scalar SingleCell.ue[0].cellularNic.rlc.um rlcPduDelayDl:mean 0.0040000000000000027
scalar SingleCell.ue[0].cellularNic.rlc.um rlcThroughputUl:simu5g_rateavg 1998.4852982832097
scalar SingleCell.ue[0].cellularNic.rlc.um rlcThroughputDl:simu5g_rateavg 2080.9753282525453
scalar SingleCell.ue[0].cellularNic.rlc.um rlcDelayUl:mean 0.009170603674540612
scalar SingleCell.ue[0].cellularNic.rlc.um rlcDelayDl:mean 0.0044146877771680101
scalar SingleCell.ue[0].cellularNic.rlc.um sentPacketToLowerLayer:count 381
scalar SingleCell.ue[0].cellularNic.rlc.um sentPacketToLowerLayer:sum(packetBytes) 22479
scalar SingleCell.ue[0].cellularNic.rlc.um sentPacketToUpperLayer:count 381
scalar SingleCell.ue[0].cellularNic.rlc.um sentPacketToUpperLayer:sum(packetBytes) 22479
scalar SingleCell.ue[0].cellularNic.rlc.um receivedPacketFromLowerLayer:count 381
scalar SingleCell.ue[0].cellularNic.rlc.um receivedPacketFromLowerLayer:sum(packetBytes) 23241
scalar SingleCell.ue[0].cellularNic.rlc.um receivedPacketFromUpperLayer:count 381
scalar SingleCell.ue[0].cellularNic.rlc.um receivedPacketFromUpperLayer:sum(packetBytes) 21717
scalar SingleCell.ue[0].cellularNic.rlc.am rlcPacketLossTotal:mean -nan
scalar SingleCell.ue[0].cellularNic.rlc.am rlcCellThroughputUl:simu5g_rateavg -nan
scalar SingleCell.ue[0].cellularNic.rlc.am rlcCellThroughputDl:simu5g_rateavg -nan
scalar SingleCell.ue[0].cellularNic.rlc.am rlcPduThroughputUl:simu5g_rateavg -nan
scalar SingleCell.ue[0].cellularNic.rlc.am rlcPduThroughputDl:simu5g_rateavg -nan
scalar SingleCell.ue[0].cellularNic.rlc.am rlcPduDelayUl:mean -nan
scalar SingleCell.ue[0].cellularNic.rlc.am rlcPduDelayDl:mean -nan
scalar SingleCell.ue[0].cellularNic.rlc.am rlcThroughputUl:simu5g_rateavg -nan
scalar SingleCell.ue[0].cellularNic.rlc.am rlcThroughputDl:simu5g_rateavg -nan
scalar SingleCell.ue[0].cellularNic.rlc.am rlcDelayUl:mean -nan
scalar SingleCell.ue[0].cellularNic.rlc.am rlcDelayDl:mean -nan
scalar SingleCell.ue[0].cellularNic.rlc.am rlcPduPacketLossUl:mean -nan
scalar SingleCell.ue[0].cellularNic.rlc.am rlcPduPacketLossDl:mean -nan
scalar SingleCell.ue[0].cellularNic.rlc.am rlcPacketLossUl:mean -nan
scalar SingleCell.ue[0].cellularNic.rlc.am rlcPacketLossDl:mean -nan
scalar SingleCell.ue[0].cellularNic.rlc.am rlcCellPacketLossUl:mean -nan
scalar SingleCell.ue[0].cellularNic.rlc.am rlcCellPacketLossDl:mean -nan
scalar SingleCell.ue[0].cellularNic.mac harqTxAttemptsUl:mean 1.0026246719160106
scalar SingleCell.ue[0].cellularNic.mac harqTxAttemptsDl:mean 1
scalar SingleCell.ue[0].cellularNic.mac harqErrorRate_4th_Ul:mean -nan
scalar SingleCell.ue[0].cellularNic.mac harqErrorRate_4th_Dl:mean -nan
scalar SingleCell.ue[0].cellularNic.mac harqErrorRate_3rd_Ul:mean -nan
scalar SingleCell.ue[0].cellularNic.mac harqErrorRate_3rd_Dl:mean -nan
scalar SingleCell.ue[0].cellularNic.mac harqErrorRate_2nd_Ul:mean 0
scalar SingleCell.ue[0].cellularNic.mac harqErrorRate_2nd_Dl:mean -nan
scalar SingleCell.ue[0].cellularNic.mac harqErrorRate_1st_Ul:mean 0.0026246719160104987
scalar SingleCell.ue[0].cellularNic.mac harqErrorRate_1st_Dl:mean 0
scalar SingleCell.ue[0].cellularNic.mac harqErrorRateUl:mean 0.002617801047120419
scalar SingleCell.ue[0].cellularNic.mac harqErrorRateDl:mean 0
scalar SingleCell.ue[0].cellularNic.mac macCellPacketLossUl:mean -nan
scalar SingleCell.ue[0].cellularNic.mac macCellPacketLossDl:mean -nan
scalar SingleCell.ue[0].cellularNic.mac macPacketLossUl:mean 0
scalar SingleCell.ue[0].cellularNic.mac macPacketLossDl:mean 0
scalar SingleCell.ue[0].cellularNic.mac macThroughputUl:simu5g_rateavg 2138.7784793638621
scalar SingleCell.ue[0].cellularNic.mac macThroughputDl:simu5g_rateavg 2222.058401354413
scalar SingleCell.ue[0].cellularNic.mac macDelayUl:mean 0.0041049868766404232
scalar SingleCell.ue[0].cellularNic.mac macDelayDl:mean 0.0040000000000000027
scalar SingleCell.ue[0].cellularNic.mac macCellThroughputUl:simu5g_rateavg -nan
scalar SingleCell.ue[0].cellularNic.mac macCellThroughputDl:simu5g_rateavg -nan
scalar SingleCell.ue[0].cellularNic.mac sentPacketToLowerLayer:count 1145
scalar SingleCell.ue[0].cellularNic.mac sentPacketToLowerLayer:sum(packetBytes) 24065
scalar SingleCell.ue[0].cellularNic.mac sentPacketToUpperLayer:count 762
scalar SingleCell.ue[0].cellularNic.mac sentPacketToUpperLayer:sum(packetBytes) 23622
scalar SingleCell.ue[0].cellularNic.mac receivedPacketFromLowerLayer:count 1527
scalar SingleCell.ue[0].cellularNic.mac receivedPacketFromLowerLayer:sum(packetBytes) 25149
scalar SingleCell.ue[0].cellularNic.mac receivedPacketFromUpperLayer:count 762
scalar SingleCell.ue[0].cellularNic.mac receivedPacketFromUpperLayer:sum(packetBytes) 44196
scalar SingleCell.ue[0].cellularNic.mac macBufferOverFlowD2D:mean -nan
scalar SingleCell.ue[0].cellularNic.mac macBufferOverFlowUl:mean -nan
scalar SingleCell.ue[0].cellularNic.mac macBufferOverFlowDl:mean -nan
scalar SingleCell.ue[0].cellularNic.phy distance:mean 133.21587653779665
scalar SingleCell.ue[0].cellularNic.phy averageCqiUl:mean 13.455497382198953
scalar SingleCell.ue[0].cellularNic.phy averageCqiUl:count 382
scalar SingleCell.ue[0].cellularNic.phy averageCqiDl:mean 14.288713910761155
scalar SingleCell.ue[0].cellularNic.phy averageCqiDl:count 381
scalar SingleCell.ue[0].cellularNic.channelModel[0] measuredSinrUl:mean 28.772644394056357
scalar SingleCell.ue[0].cellularNic.channelModel[0] measuredSinrDl:mean 42.984573153844629
scalar SingleCell.ue[0].cellularNic.channelModel[0] rcvdSinrD2D:mean -nan
scalar SingleCell.ue[0].cellularNic.channelModel[0] rcvdSinrUl:mean 31.555780565616509
scalar SingleCell.ue[0].cellularNic.channelModel[0] rcvdSinrDl:mean 44.854365948593241
scalar SingleCell.ue[0].cellularNic packetDropInterfaceDown:count 0
scalar SingleCell.ue[0].cellularNic packetDropInterfaceDown:sum(packetBytes) 0
scalar SingleCell.ue[0].cellularNic packetDropNoCarrier:count 0
scalar SingleCell.ue[0].cellularNic packetDropNoCarrier:sum(packetBytes) 0
scalar SingleCell.ue[0].encap pauseSent:count 0
scalar SingleCell.ue[0].encap pauseSent:sum 0
scalar SingleCell.ue[0].encap decapPk:count 0
scalar SingleCell.ue[0].encap decapPk:sum(packetBytes) 0
scalar SingleCell.ue[0].encap encapPk:count 0
scalar SingleCell.ue[0].encap encapPk:sum(packetBytes) 0
scalar SingleCell.ue[0].ipv4.ip packetDropAddressResolutionFailed:count 0
scalar SingleCell.ue[0].ipv4.ip packetDropAddressResolutionFailed:sum(packetBytes) 0
scalar SingleCell.ue[0].ipv4.ip packetDropHopLimitReached:count 0
scalar SingleCell.ue[0].ipv4.ip packetDropHopLimitReached:sum(packetBytes) 0
scalar SingleCell.ue[0].ipv4.ip packetDropForwardingDisabled:count 0
scalar SingleCell.ue[0].ipv4.ip packetDropForwardingDisabled:sum(packetBytes) 0
scalar SingleCell.ue[0].ipv4.ip packetDropNoInterfaceFound:count 0
scalar SingleCell.ue[0].ipv4.ip packetDropNoInterfaceFound:sum(packetBytes) 0
scalar SingleCell.ue[0].ipv4.ip packetDropNoRouteFound:count 0
scalar SingleCell.ue[0].ipv4.ip packetDropNoRouteFound:sum(packetBytes) 0
scalar SingleCell.ue[0].ipv4.ip packetDropUndefined:count 0
scalar SingleCell.ue[0].ipv4.ip packetDropUndefined:sum(packetBytes) 0
scalar SingleCell.ue[0].ipv4.arp arpResolutionFailed:count 0
scalar SingleCell.ue[0].ipv4.arp arpResolutionCompleted:count 0
scalar SingleCell.ue[0].ipv4.arp arpResolutionInitiated:count 0
scalar SingleCell.ue[0].ipv4.arp arpReplySent:count 0
scalar SingleCell.ue[0].ipv4.arp arpReplySent:sum(packetBytes) 0
scalar SingleCell.ue[0].ipv4.arp arpRequestSent:count 0
scalar SingleCell.ue[0].ipv4.arp arpRequestSent:sum(packetBytes) 0
scalar SingleCell.ue[0].udp packetReceived:count 381
scalar SingleCell.ue[0].udp packetReceived:sum(packetBytes) 14478
scalar SingleCell.ue[0].udp packetSent:count 0
scalar SingleCell.ue[0].udp packetSent:sum(packetBytes) 0
scalar SingleCell.ue[0].udp passedUpPk:count 0
scalar SingleCell.ue[0].udp droppedPkWrongPort:count 381
scalar SingleCell.ue[0].udp droppedPkBadChecksum:count 0
scalar SingleCell.ue[1].lo[0].lo rcvdPkFromHl:count 0
scalar SingleCell.ue[1].lo[0].lo rcvdPkFromHl:sum(packetBytes) 0
scalar SingleCell.ue[1].lo[0].lo passedUpPk:count 0
scalar SingleCell.ue[1].lo[0].lo passedUpPk:sum(packetBytes) 0
scalar SingleCell.ue[1].lo[0] packetDropInterfaceDown:count 0
scalar SingleCell.ue[1].lo[0] packetDropInterfaceDown:sum(packetBytes) 0
scalar SingleCell.ue[1].lo[0] packetDropNoCarrier:count 0
scalar SingleCell.ue[1].lo[0] packetDropNoCarrier:sum(packetBytes) 0
scalar SingleCell.ue[1].cellularNic.pdcp sentPacketToLowerLayer:count 159
scalar SingleCell.ue[1].cellularNic.pdcp sentPacketToLowerLayer:sum(packetBytes) 9063
scalar SingleCell.ue[1].cellularNic.pdcp sentPacketToUpperLayer:count 159
scalar SingleCell.ue[1].cellularNic.pdcp sentPacketToUpperLayer:sum(packetBytes) 9222
scalar SingleCell.ue[1].cellularNic.pdcp receivedPacketFromLowerLayer:count 159
scalar SingleCell.ue[1].cellularNic.pdcp receivedPacketFromLowerLayer:sum(packetBytes) 9381
scalar SingleCell.ue[1].cellularNic.pdcp receivedPacketFromUpperLayer:count 159
scalar SingleCell.ue[1].cellularNic.pdcp receivedPacketFromUpperLayer:sum(packetBytes) 8904
scalar SingleCell.ue[1].cellularNic.rlc.tm rlcPacketLossUl:mean -nan
scalar SingleCell.ue[1].cellularNic.rlc.tm rlcPacketLossUl:sum 0
scalar SingleCell.ue[1].cellularNic.rlc.tm rlcPacketLossDl:mean -nan
scalar SingleCell.ue[1].cellularNic.rlc.tm rlcPacketLossDl:sum 0
scalar SingleCell.ue[1].cellularNic.rlc.tm sentPacketToLowerLayer:count 0
scalar SingleCell.ue[1].cellularNic.rlc.tm sentPacketToLowerLayer:sum(packetBytes) 0
scalar SingleCell.ue[1].cellularNic.rlc.tm sentPacketToUpperLayer:count 0
scalar SingleCell.ue[1].cellularNic.rlc.tm sentPacketToUpperLayer:sum(packetBytes) 0
scalar SingleCell.ue[1].cellularNic.rlc.tm receivedPacketFromLowerLayer:count 0
scalar SingleCell.ue[1].cellularNic.rlc.tm receivedPacketFromLowerLayer:sum(packetBytes) 0
scalar SingleCell.ue[1].cellularNic.rlc.tm receivedPacketFromUpperLayer:count 0
scalar SingleCell.ue[1].cellularNic.rlc.tm receivedPacketFromUpperLayer:sum(packetBytes) 0
scalar SingleCell.ue[1].cellularNic.rlc.um rlcCellThroughputUl:simu5g_rateavg -nan
scalar SingleCell.ue[1].cellularNic.rlc.um rlcCellThroughputDl:simu5g_rateavg -nan
scalar SingleCell.ue[1].cellularNic.rlc.um rlcPduThroughputUl:simu5g_rateavg 0
scalar SingleCell.ue[1].cellularNic.rlc.um rlcPduThroughputDl:simu5g_rateavg 0
scalar SingleCell.ue[1].cellularNic.rlc.um rlcPduDelayUl:mean 0.0052500000000000029
scalar SingleCell.ue[1].cellularNic.rlc.um rlcPduDelayDl:mean 0.0041132075471698145
scalar SingleCell.ue[1].cellularNic.rlc.um rlcThroughputUl:simu5g_rateavg 1252.5884543526465
scalar SingleCell.ue[1].cellularNic.rlc.um rlcThroughputDl:simu5g_rateavg 1314.6783140337593
scalar SingleCell.ue[1].cellularNic.rlc.um rlcDelayUl:mean 0.0115157232704402
scalar SingleCell.ue[1].cellularNic.rlc.um rlcDelayDl:mean 0.0045396991533521976
scalar SingleCell.ue[1].cellularNic.rlc.um sentPacketToLowerLayer:count 160
scalar SingleCell.ue[1].cellularNic.rlc.um sentPacketToLowerLayer:sum(packetBytes) 9383
scalar SingleCell.ue[1].cellularNic.rlc.um sentPacketToUpperLayer:count 159
scalar SingleCell.ue[1].cellularNic.rlc.um sentPacketToUpperLayer:sum(packetBytes) 9381
scalar SingleCell.ue[1].cellularNic.rlc.um receivedPacketFromLowerLayer:count 159
scalar SingleCell.ue[1].cellularNic.rlc.um receivedPacketFromLowerLayer:sum(packetBytes) 9699
scalar SingleCell.ue[1].cellularNic.rlc.um receivedPacketFromUpperLayer:count 159
scalar SingleCell.ue[1].cellularNic.rlc.um receivedPacketFromUpperLayer:sum(packetBytes) 9063
scalar SingleCell.ue[1].cellularNic.rlc.am rlcPacketLossTotal:mean -nan
scalar SingleCell.ue[1].cellularNic.rlc.am rlcCellThroughputUl:simu5g_rateavg -nan
scalar SingleCell.ue[1].cellularNic.rlc.am rlcCellThroughputDl:simu5g_rateavg -nan
scalar SingleCell.ue[1].cellularNic.rlc.am rlcPduThroughputUl:simu5g_rateavg -nan
scalar SingleCell.ue[1].cellularNic.rlc.am rlcPduThroughputDl:simu5g_rateavg -nan
scalar SingleCell.ue[1].cellularNic.rlc.am rlcPduDelayUl:mean -nan
scalar SingleCell.ue[1].cellularNic.rlc.am rlcPduDelayDl:mean -nan
scalar SingleCell.ue[1].cellularNic.rlc.am rlcThroughputUl:simu5g_rateavg -nan
scalar SingleCell.ue[1].cellularNic.rlc.am rlcThroughputDl:simu5g_rateavg -nan
scalar SingleCell.ue[1].cellularNic.rlc.am rlcDelayUl:mean -nan
scalar SingleCell.ue[1].cellularNic.rlc.am rlcDelayDl:mean -nan
scalar SingleCell.ue[1].cellularNic.rlc.am rlcPduPacketLossUl:mean -nan
scalar SingleCell.ue[1].cellularNic.rlc.am rlcPduPacketLossDl:mean -nan
scalar SingleCell.ue[1].cellularNic.rlc.am rlcPacketLossUl:mean -nan
scalar SingleCell.ue[1].cellularNic.rlc.am rlcPacketLossDl:mean -nan
scalar SingleCell.ue[1].cellularNic.rlc.am rlcCellPacketLossUl:mean -nan
scalar SingleCell.ue[1].cellularNic.rlc.am rlcCellPacketLossDl:mean -nan
scalar SingleCell.ue[1].cellularNic.mac harqTxAttemptsUl:mean 1.0249999999999999
scalar SingleCell.ue[1].cellularNic.mac harqTxAttemptsDl:mean 1.0188679245283019
scalar SingleCell.ue[1].cellularNic.mac harqErrorRate_4th_Ul:mean -nan
scalar SingleCell.ue[1].cellularNic.mac harqErrorRate_4th_Dl:mean -nan
scalar SingleCell.ue[1].cellularNic.mac harqErrorRate_3rd_Ul:mean -nan
scalar SingleCell.ue[1].cellularNic.mac harqErrorRate_3rd_Dl:mean -nan
scalar SingleCell.ue[1].cellularNic.mac harqErrorRate_2nd_Ul:mean 0
scalar SingleCell.ue[1].cellularNic.mac harqErrorRate_2nd_Dl:mean 0
scalar SingleCell.ue[1].cellularNic.mac harqErrorRate_1st_Ul:mean 0.025000000000000001
scalar SingleCell.ue[1].cellularNic.mac harqErrorRate_1st_Dl:mean 0.018867924528301886
scalar SingleCell.ue[1].cellularNic.mac harqErrorRateUl:mean 0.024390243902439025
scalar SingleCell.ue[1].cellularNic.mac harqErrorRateDl:mean 0.018518518518518517
scalar SingleCell.ue[1].cellularNic.mac macCellPacketLossUl:mean -nan
scalar SingleCell.ue[1].cellularNic.mac macCellPacketLossDl:mean -nan
scalar SingleCell.ue[1].cellularNic.mac macPacketLossUl:mean 0
scalar SingleCell.ue[1].cellularNic.mac macPacketLossDl:mean 0
scalar SingleCell.ue[1].cellularNic.mac macThroughputUl:simu5g_rateavg 1343.5553174401878
scalar SingleCell.ue[1].cellularNic.mac macThroughputDl:simu5g_rateavg 1403.809047188591
scalar SingleCell.ue[1].cellularNic.mac macDelayUl:mean 0.0052500000000000029
scalar SingleCell.ue[1].cellularNic.mac macDelayDl:mean 0.0041132075471698145
scalar SingleCell.ue[1].cellularNic.mac macCellThroughputUl:simu5g_rateavg -nan
scalar SingleCell.ue[1].cellularNic.mac macCellThroughputDl:simu5g_rateavg -nan
scalar SingleCell.ue[1].cellularNic.mac sentPacketToLowerLayer:count 489
scalar SingleCell.ue[1].cellularNic.mac sentPacketToLowerLayer:sum(packetBytes) 10272
scalar SingleCell.ue[1].cellularNic.mac sentPacketToUpperLayer:count 319
scalar SingleCell.ue[1].cellularNic.mac sentPacketToUpperLayer:sum(packetBytes) 9859
scalar SingleCell.ue[1].cellularNic.mac receivedPacketFromLowerLayer:count 653
scalar SingleCell.ue[1].cellularNic.mac receivedPacketFromLowerLayer:sum(packetBytes) 10697
scalar SingleCell.ue[1].cellularNic.mac receivedPacketFromUpperLayer:count 319
scalar SingleCell.ue[1].cellularNic.mac receivedPacketFromUpperLayer:sum(packetBytes) 18446
scalar SingleCell.ue[1].cellularNic.mac macBufferOverFlowD2D:mean -nan
scalar SingleCell.ue[1].cellularNic.mac macBufferOverFlowUl:mean -nan
scalar SingleCell.ue[1].cellularNic.mac macBufferOverFlowDl:mean -nan
scalar SingleCell.ue[1].cellularNic.phy distance:mean 185.58944150636097
scalar SingleCell.ue[1].cellularNic.phy averageCqiUl:mean 12.939024390243903
scalar SingleCell.ue[1].cellularNic.phy averageCqiUl:count 164
scalar SingleCell.ue[1].cellularNic.phy averageCqiDl:mean 13.975308641975309
scalar SingleCell.ue[1].cellularNic.phy averageCqiDl:count 162
scalar SingleCell.ue[1].cellularNic.channelModel[0] measuredSinrUl:mean 27.112874070157137
scalar SingleCell.ue[1].cellularNic.channelModel[0] measuredSinrDl:mean 33.956194298925517
scalar SingleCell.ue[1].cellularNic.channelModel[0] rcvdSinrD2D:mean -nan
scalar SingleCell.ue[1].cellularNic.channelModel[0] rcvdSinrUl:mean 24.106882995849663
scalar SingleCell.ue[1].cellularNic.channelModel[0] rcvdSinrDl:mean 32.966979237324679
scalar SingleCell.ue[1].cellularNic packetDropInterfaceDown:count 0
scalar SingleCell.ue[1].cellularNic packetDropInterfaceDown:sum(packetBytes) 0
scalar SingleCell.ue[1].cellularNic packetDropNoCarrier:count 0
scalar SingleCell.ue[1].cellularNic packetDropNoCarrier:sum(packetBytes) 0
scalar SingleCell.ue[1].encap pauseSent:count 0
scalar SingleCell.ue[1].encap pauseSent:sum 0
scalar SingleCell.ue[1].encap decapPk:count 0
scalar SingleCell.ue[1].encap decapPk:sum(packetBytes) 0
scalar SingleCell.ue[1].encap encapPk:count 0
scalar SingleCell.ue[1].encap encapPk:sum(packetBytes) 0
scalar SingleCell.ue[1].ipv4.ip packetDropAddressResolutionFailed:count 0
scalar SingleCell.ue[1].ipv4.ip packetDropAddressResolutionFailed:sum(packetBytes) 0
scalar SingleCell.ue[1].ipv4.ip packetDropHopLimitReached:count 0
scalar SingleCell.ue[1].ipv4.ip packetDropHopLimitReached:sum(packetBytes) 0
scalar SingleCell.ue[1].ipv4.ip packetDropForwardingDisabled:count 0
scalar SingleCell.ue[1].ipv4.ip packetDropForwardingDisabled:sum(packetBytes) 0
scalar SingleCell.ue[1].ipv4.ip packetDropNoInterfaceFound:count 0
scalar SingleCell.ue[1].ipv4.ip packetDropNoInterfaceFound:sum(packetBytes) 0
scalar SingleCell.ue[1].ipv4.ip packetDropNoRouteFound:count 0
scalar SingleCell.ue[1].ipv4.ip packetDropNoRouteFound:sum(packetBytes) 0
scalar SingleCell.ue[1].ipv4.ip packetDropUndefined:count 0
scalar SingleCell.ue[1].ipv4.ip packetDropUndefined:sum(packetBytes) 0
scalar SingleCell.ue[1].ipv4.arp arpResolutionFailed:count 0
scalar SingleCell.ue[1].ipv4.arp arpResolutionCompleted:count 0
scalar SingleCell.ue[1].ipv4.arp arpResolutionInitiated:count 0
scalar SingleCell.ue[1].ipv4.arp arpReplySent:count 0
scalar SingleCell.ue[1].ipv4.arp arpReplySent:sum(packetBytes) 0
scalar SingleCell.ue[1].ipv4.arp arpRequestSent:count 0
scalar SingleCell.ue[1].ipv4.arp arpRequestSent:sum(packetBytes) 0
scalar SingleCell.ue[1].udp packetReceived:count 159
scalar SingleCell.ue[1].udp packetReceived:sum(packetBytes) 6042
scalar SingleCell.ue[1].udp packetSent:count 0
scalar SingleCell.ue[1].udp packetSent:sum(packetBytes) 0
scalar SingleCell.ue[1].udp passedUpPk:count 0
scalar SingleCell.ue[1].udp droppedPkWrongPort:count 159
scalar SingleCell.ue[1].udp droppedPkBadChecksum:count 0
scalar SingleCell.ue[2].lo[0].lo rcvdPkFromHl:count 0
scalar SingleCell.ue[2].lo[0].lo rcvdPkFromHl:sum(packetBytes) 0
scalar SingleCell.ue[2].lo[0].lo passedUpPk:count 0
scalar SingleCell.ue[2].lo[0].lo passedUpPk:sum(packetBytes) 0
scalar SingleCell.ue[2].lo[0] packetDropInterfaceDown:count 0
scalar SingleCell.ue[2].lo[0] packetDropInterfaceDown:sum(packetBytes) 0
scalar SingleCell.ue[2].lo[0] packetDropNoCarrier:count 0
scalar SingleCell.ue[2].lo[0] packetDropNoCarrier:sum(packetBytes) 0
scalar SingleCell.ue[2].cellularNic.pdcp sentPacketToLowerLayer:count 290
scalar SingleCell.ue[2].cellularNic.pdcp sentPacketToLowerLayer:sum(packetBytes) 16530
scalar SingleCell.ue[2].cellularNic.pdcp sentPacketToUpperLayer:count 290
scalar SingleCell.ue[2].cellularNic.pdcp sentPacketToUpperLayer:sum(packetBytes) 16820
scalar SingleCell.ue[2].cellularNic.pdcp receivedPacketFromLowerLayer:count 290
scalar SingleCell.ue[2].cellularNic.pdcp receivedPacketFromLowerLayer:sum(packetBytes) 17110
scalar SingleCell.ue[2].cellularNic.pdcp receivedPacketFromUpperLayer:count 290
scalar SingleCell.ue[2].cellularNic.pdcp receivedPacketFromUpperLayer:sum(packetBytes) 16240
scalar SingleCell.ue[2].cellularNic.rlc.tm rlcPacketLossUl:mean -nan
scalar SingleCell.ue[2].cellularNic.rlc.tm rlcPacketLossUl:sum 0
scalar SingleCell.ue[2].cellularNic.rlc.tm rlcPacketLossDl:mean -nan
scalar SingleCell.ue[2].cellularNic.rlc.tm rlcPacketLossDl:sum 0
scalar SingleCell.ue[2].cellularNic.rlc.tm sentPacketToLowerLayer:count 0
scalar SingleCell.ue[2].cellularNic.rlc.tm sentPacketToLowerLayer:sum(packetBytes) 0
scalar SingleCell.ue[2].cellularNic.rlc.tm sentPacketToUpperLayer:count 0
scalar SingleCell.ue[2].cellularNic.rlc.tm sentPacketToUpperLayer:sum(packetBytes) 0
scalar SingleCell.ue[2].cellularNic.rlc.tm receivedPacketFromLowerLayer:count 0
scalar SingleCell.ue[2].cellularNic.rlc.tm receivedPacketFromLowerLayer:sum(packetBytes) 0
scalar SingleCell.ue[2].cellularNic.rlc.tm receivedPacketFromUpperLayer:count 0
scalar SingleCell.ue[2].cellularNic.rlc.tm receivedPacketFromUpperLayer:sum(packetBytes) 0
scalar SingleCell.ue[2].cellularNic.rlc.um rlcCellThroughputUl:simu5g_rateavg -nan
scalar SingleCell.ue[2].cellularNic.rlc.um rlcCellThroughputDl:simu5g_rateavg -nan
scalar SingleCell.ue[2].cellularNic.rlc.um rlcPduThroughputUl:simu5g_rateavg 0
scalar SingleCell.ue[2].cellularNic.rlc.um rlcPduThroughputDl:simu5g_rateavg 0
scalar SingleCell.ue[2].cellularNic.rlc.um rlcPduDelayUl:mean 0.0071172413793103477
scalar SingleCell.ue[2].cellularNic.rlc.um rlcPduDelayDl:mean 0.0040827586206896582
scalar SingleCell.ue[2].cellularNic.rlc.um rlcThroughputUl:simu5g_rateavg 1613.144815574389
scalar SingleCell.ue[2].cellularNic.rlc.um rlcThroughputDl:simu5g_rateavg 1688.782850994274
scalar SingleCell.ue[2].cellularNic.rlc.um rlcDelayUl:mean 0.019989655172413818
scalar SingleCell.ue[2].cellularNic.rlc.um rlcDelayDl:mean 0.0045063098657724268
scalar SingleCell.ue[2].cellularNic.rlc.um sentPacketToLowerLayer:count 290
scalar SingleCell.ue[2].cellularNic.rlc.um sentPacketToLowerLayer:sum(packetBytes) 17110
scalar SingleCell.ue[2].cellularNic.rlc.um sentPacketToUpperLayer:count 290
scalar SingleCell.ue[2].cellularNic.rlc.um sentPacketToUpperLayer:sum(packetBytes) 17110
scalar SingleCell.ue[2].cellularNic.rlc.um receivedPacketFromLowerLayer:count 290
scalar SingleCell.ue[2].cellularNic.rlc.um receivedPacketFromLowerLayer:sum(packetBytes) 17690
scalar SingleCell.ue[2].cellularNic.rlc.um receivedPacketFromUpperLayer:count 290
scalar SingleCell.ue[2].cellularNic.rlc.um receivedPacketFromUpperLayer:sum(packetBytes) 16530
scalar SingleCell.ue[2].cellularNic.rlc.am rlcPacketLossTotal:mean -nan
scalar SingleCell.ue[2].cellularNic.rlc.am rlcCellThroughputUl:simu5g_rateavg -nan
scalar SingleCell.ue[2].cellularNic.rlc.am rlcCellThroughputDl:simu5g_rateavg -nan
scalar SingleCell.ue[2].cellularNic.rlc.am rlcPduThroughputUl:simu5g_rateavg -nan
scalar SingleCell.ue[2].cellularNic.rlc.am rlcPduThroughputDl:simu5g_rateavg -nan
scalar SingleCell.ue[2].cellularNic.rlc.am rlcPduDelayUl:mean -nan
scalar SingleCell.ue[2].cellularNic.rlc.am rlcPduDelayDl:mean -nan
scalar SingleCell.ue[2].cellularNic.rlc.am rlcThroughputUl:simu5g_rateavg -nan
scalar SingleCell.ue[2].cellularNic.rlc.am rlcThroughputDl:simu5g_rateavg -nan
scalar SingleCell.ue[2].cellularNic.rlc.am rlcDelayUl:mean -nan
scalar SingleCell.ue[2].cellularNic.rlc.am rlcDelayDl:mean -nan
scalar SingleCell.ue[2].cellularNic.rlc.am rlcPduPacketLossUl:mean -nan
scalar SingleCell.ue[2].cellularNic.rlc.am rlcPduPacketLossDl:mean -nan
scalar SingleCell.ue[2].cellularNic.rlc.am rlcPacketLossUl:mean -nan
scalar SingleCell.ue[2].cellularNic.rlc.am rlcPacketLossDl:mean -nan
scalar SingleCell.ue[2].cellularNic.rlc.am rlcCellPacketLossUl:mean -nan
scalar SingleCell.ue[2].cellularNic.rlc.am rlcCellPacketLossDl:mean -nan
scalar SingleCell.ue[2].cellularNic.mac harqTxAttemptsUl:mean 1.0172413793103448
scalar SingleCell.ue[2].cellularNic.mac harqTxAttemptsDl:mean 1.0137931034482759
scalar SingleCell.ue[2].cellularNic.mac harqErrorRate_4th_Ul:mean -nan
scalar SingleCell.ue[2].cellularNic.mac harqErrorRate_4th_Dl:mean -nan
scalar SingleCell.ue[2].cellularNic.mac harqErrorRate_3rd_Ul:mean -nan
scalar SingleCell.ue[2].cellularNic.mac harqErrorRate_3rd_Dl:mean -nan
scalar SingleCell.ue[2].cellularNic.mac harqErrorRate_2nd_Ul:mean 0
scalar SingleCell.ue[2].cellularNic.mac harqErrorRate_2nd_Dl:mean 0
scalar SingleCell.ue[2].cellularNic.mac harqErrorRate_1st_Ul:mean 0.017241379310344827
scalar SingleCell.ue[2].cellularNic.mac harqErrorRate_1st_Dl:mean 0.013793103448275862
scalar SingleCell.ue[2].cellularNic.mac harqErrorRateUl:mean 0.016949152542372881
scalar SingleCell.ue[2].cellularNic.mac harqErrorRateDl:mean 0.013605442176870748
scalar SingleCell.ue[2].cellularNic.mac macCellPacketLossUl:mean -nan
scalar SingleCell.ue[2].cellularNic.mac macCellPacketLossDl:mean -nan
scalar SingleCell.ue[2].cellularNic.mac macPacketLossUl:mean 0
scalar SingleCell.ue[2].cellularNic.mac macPacketLossDl:mean 0
scalar SingleCell.ue[2].cellularNic.mac macThroughputUl:simu5g_rateavg 1733.199539500017
scalar SingleCell.ue[2].cellularNic.mac macThroughputDl:simu5g_rateavg 1803.2766036040571
scalar SingleCell.ue[2].cellularNic.mac macDelayUl:mean 0.0071172413793103477
scalar SingleCell.ue[2].cellularNic.mac macDelayDl:mean 0.0040827586206896582
scalar SingleCell.ue[2].cellularNic.mac macCellThroughputUl:simu5g_rateavg -nan
scalar SingleCell.ue[2].cellularNic.mac macCellThroughputDl:simu5g_rateavg -nan
scalar SingleCell.ue[2].cellularNic.mac sentPacketToLowerLayer:count 884
scalar SingleCell.ue[2].cellularNic.mac sentPacketToLowerLayer:sum(packetBytes) 18584
scalar SingleCell.ue[2].cellularNic.mac sentPacketToUpperLayer:count 580
scalar SingleCell.ue[2].cellularNic.mac sentPacketToUpperLayer:sum(packetBytes) 17980
scalar SingleCell.ue[2].cellularNic.mac receivedPacketFromLowerLayer:count 1179
scalar SingleCell.ue[2].cellularNic.mac receivedPacketFromLowerLayer:sum(packetBytes) 19407
scalar SingleCell.ue[2].cellularNic.mac receivedPacketFromUpperLayer:count 580
scalar SingleCell.ue[2].cellularNic.mac receivedPacketFromUpperLayer:sum(packetBytes) 33640
scalar SingleCell.ue[2].cellularNic.mac macBufferOverFlowD2D:mean -nan
scalar SingleCell.ue[2].cellularNic.mac macBufferOverFlowUl:mean -nan
scalar SingleCell.ue[2].cellularNic.mac macBufferOverFlowDl:mean -nan
scalar SingleCell.ue[2].cellularNic.phy distance:mean 256.48415189632129
scalar SingleCell.ue[2].cellularNic.phy averageCqiUl:mean 13.301694915254238
scalar SingleCell.ue[2].cellularNic.phy averageCqiUl:count 295
scalar SingleCell.ue[2].cellularNic.phy averageCqiDl:mean 14.887755102040817
scalar SingleCell.ue[2].cellularNic.phy averageCqiDl:count 294
scalar SingleCell.ue[2].cellularNic.channelModel[0] measuredSinrUl:mean 28.437931691841985
scalar SingleCell.ue[2].cellularNic.channelModel[0] measuredSinrDl:mean 38.695622609516533
scalar SingleCell.ue[2].cellularNic.channelModel[0] rcvdSinrD2D:mean -nan
scalar SingleCell.ue[2].cellularNic.channelModel[0] rcvdSinrUl:mean 33.5260292865674
scalar SingleCell.ue[2].cellularNic.channelModel[0] rcvdSinrDl:mean 36.587792945464962
scalar SingleCell.ue[2].cellularNic packetDropInterfaceDown:count 0
scalar SingleCell.ue[2].cellularNic packetDropInterfaceDown:sum(packetBytes) 0
scalar SingleCell.ue[2].cellularNic packetDropNoCarrier:count 0
scalar SingleCell.ue[2].cellularNic packetDropNoCarrier:sum(packetBytes) 0
scalar SingleCell.ue[2].encap pauseSent:count 0
scalar SingleCell.ue[2].encap pauseSent:sum 0
scalar SingleCell.ue[2].encap decapPk:count 0
scalar SingleCell.ue[2].encap decapPk:sum(packetBytes) 0
scalar SingleCell.ue[2].encap encapPk:count 0
scalar SingleCell.ue[2].encap encapPk:sum(packetBytes) 0
scalar SingleCell.ue[2].ipv4.ip packetDropAddressResolutionFailed:count 0
scalar SingleCell.ue[2].ipv4.ip packetDropAddressResolutionFailed:sum(packetBytes) 0
scalar SingleCell.ue[2].ipv4.ip packetDropHopLimitReached:count 0
scalar SingleCell.ue[2].ipv4.ip packetDropHopLimitReached:sum(packetBytes) 0
scalar SingleCell.ue[2].ipv4.ip packetDropForwardingDisabled:count 0
scalar SingleCell.ue[2].ipv4.ip packetDropForwardingDisabled:sum(packetBytes) 0
scalar SingleCell.ue[2].ipv4.ip packetDropNoInterfaceFound:count 0
scalar SingleCell.ue[2].ipv4.ip packetDropNoInterfaceFound:sum(packetBytes) 0
scalar SingleCell.ue[2].ipv4.ip packetDropNoRouteFound:count 0
scalar SingleCell.ue[2].ipv4.ip packetDropNoRouteFound:sum(packetBytes) 0
scalar SingleCell.ue[2].ipv4.ip packetDropUndefined:count 0
scalar SingleCell.ue[2].ipv4.ip packetDropUndefined:sum(packetBytes) 0
scalar SingleCell.ue[2].ipv4.arp arpResolutionFailed:count 0
scalar SingleCell.ue[2].ipv4.arp arpResolutionCompleted:count 0
scalar SingleCell.ue[2].ipv4.arp arpResolutionInitiated:count 0
scalar SingleCell.ue[2].ipv4.arp arpReplySent:count 0
scalar SingleCell.ue[2].ipv4.arp arpReplySent:sum(packetBytes) 0
scalar SingleCell.ue[2].ipv4.arp arpRequestSent:count 0
scalar SingleCell.ue[2].ipv4.arp arpRequestSent:sum(packetBytes) 0
scalar SingleCell.ue[2].udp packetReceived:count 290
scalar SingleCell.ue[2].udp packetReceived:sum(packetBytes) 11020
scalar SingleCell.ue[2].udp packetSent:count 0
scalar SingleCell.ue[2].udp packetSent:sum(packetBytes) 0
scalar SingleCell.ue[2].udp passedUpPk:count 0
scalar SingleCell.ue[2].udp droppedPkWrongPort:count 290
scalar SingleCell.ue[2].udp droppedPkBadChecksum:count 0
scalar SingleCell.ue[3].lo[0].lo rcvdPkFromHl:count 0
scalar SingleCell.ue[3].lo[0].lo rcvdPkFromHl:sum(packetBytes) 0
scalar SingleCell.ue[3].lo[0].lo passedUpPk:count 0
scalar SingleCell.ue[3].lo[0].lo passedUpPk:sum(packetBytes) 0
scalar SingleCell.ue[3].lo[0] packetDropInterfaceDown:count 0
scalar SingleCell.ue[3].lo[0] packetDropInterfaceDown:sum(packetBytes) 0
scalar SingleCell.ue[3].lo[0] packetDropNoCarrier:count 0
scalar SingleCell.ue[3].lo[0] packetDropNoCarrier:sum(packetBytes) 0
scalar SingleCell.ue[3].cellularNic.pdcp sentPacketToLowerLayer:count 265
scalar SingleCell.ue[3].cellularNic.pdcp sentPacketToLowerLayer:sum(packetBytes) 15105
scalar SingleCell.ue[3].cellularNic.pdcp sentPacketToUpperLayer:count 265
scalar SingleCell.ue[3].cellularNic.pdcp sentPacketToUpperLayer:sum(packetBytes) 15370
scalar SingleCell.ue[3].cellularNic.pdcp receivedPacketFromLowerLayer:count 265
scalar SingleCell.ue[3].cellularNic.pdcp receivedPacketFromLowerLayer:sum(packetBytes) 15635
scalar SingleCell.ue[3].cellularNic.pdcp receivedPacketFromUpperLayer:count 265
scalar SingleCell.ue[3].cellularNic.pdcp receivedPacketFromUpperLayer:sum(packetBytes) 14840
scalar SingleCell.ue[3].cellularNic.rlc.tm rlcPacketLossUl:mean -nan
scalar SingleCell.ue[3].cellularNic.rlc.tm rlcPacketLossUl:sum 0
scalar SingleCell.ue[3].cellularNic.rlc.tm rlcPacketLossDl:mean -nan
scalar SingleCell.ue[3].cellularNic.rlc.tm rlcPacketLossDl:sum 0
scalar SingleCell.ue[3].cellularNic.rlc.tm sentPacketToLowerLayer:count 0
scalar SingleCell.ue[3].cellularNic.rlc.tm sentPacketToLowerLayer:sum(packetBytes) 0
scalar SingleCell.ue[3].cellularNic.rlc.tm sentPacketToUpperLayer:count 0
scalar SingleCell.ue[3].cellularNic.rlc.tm sentPacketToUpperLayer:sum(packetBytes) 0
scalar SingleCell.ue[3].cellularNic.rlc.tm receivedPacketFromLowerLayer:count 0
scalar SingleCell.ue[3].cellularNic.rlc.tm receivedPacketFromLowerLayer:sum(packetBytes) 0
scalar SingleCell.ue[3].cellularNic.rlc.tm receivedPacketFromUpperLayer:count 0
scalar SingleCell.ue[3].cellularNic.rlc.tm receivedPacketFromUpperLayer:sum(packetBytes) 0
scalar SingleCell.ue[3].cellularNic.rlc.um rlcCellThroughputUl:simu5g_rateavg -nan
scalar SingleCell.ue[3].cellularNic.rlc.um rlcCellThroughputDl:simu5g_rateavg -nan
scalar SingleCell.ue[3].cellularNic.rlc.um rlcPduThroughputUl:simu5g_rateavg 0
scalar SingleCell.ue[3].cellularNic.rlc.um rlcPduThroughputDl:simu5g_rateavg 0
scalar SingleCell.ue[3].cellularNic.rlc.um rlcPduDelayUl:mean 0.0044528301886792481
scalar SingleCell.ue[3].cellularNic.rlc.um rlcPduDelayDl:mean 0.0040452830188679274
scalar SingleCell.ue[3].cellularNic.rlc.um rlcThroughputUl:simu5g_rateavg 1133.9273905796642
scalar SingleCell.ue[3].cellularNic.rlc.um rlcThroughputDl:simu5g_rateavg 1181.6785722580969
scalar SingleCell.ue[3].cellularNic.rlc.um rlcDelayUl:mean 0.0097358490566037161
scalar SingleCell.ue[3].cellularNic.rlc.um rlcDelayDl:mean 0.0047455978321132254
scalar SingleCell.ue[3].cellularNic.rlc.um sentPacketToLowerLayer:count 265
scalar SingleCell.ue[3].cellularNic.rlc.um sentPacketToLowerLayer:sum(packetBytes) 15635
scalar SingleCell.ue[3].cellularNic.rlc.um sentPacketToUpperLayer:count 265
scalar SingleCell.ue[3].cellularNic.rlc.um sentPacketToUpperLayer:sum(packetBytes) 15635
scalar SingleCell.ue[3].cellularNic.rlc.um receivedPacketFromLowerLayer:count 265
scalar SingleCell.ue[3].cellularNic.rlc.um receivedPacketFromLowerLayer:sum(packetBytes) 16165
scalar SingleCell.ue[3].cellularNic.rlc.um receivedPacketFromUpperLayer:count 265
scalar SingleCell.ue[3].cellularNic.rlc.um receivedPacketFromUpperLayer:sum(packetBytes) 15105
scalar SingleCell.ue[3].cellularNic.rlc.am rlcPacketLossTotal:mean -nan
scalar SingleCell.ue[3].cellularNic.rlc.am rlcCellThroughputUl:simu5g_rateavg -nan
scalar SingleCell.ue[3].cellularNic.rlc.am rlcCellThroughputDl:simu5g_rateavg -nan
scalar SingleCell.ue[3].cellularNic.rlc.am rlcPduThroughputUl:simu5g_rateavg -nan
scalar SingleCell.ue[3].cellularNic.rlc.am rlcPduThroughputDl:simu5g_rateavg -nan
scalar SingleCell.ue[3].cellularNic.rlc.am rlcPduDelayUl:mean -nan
scalar SingleCell.ue[3].cellularNic.rlc.am rlcPduDelayDl:mean -nan
scalar SingleCell.ue[3].cellularNic.rlc.am rlcThroughputUl:simu5g_rateavg -nan
scalar SingleCell.ue[3].cellularNic.rlc.am rlcThroughputDl:simu5g_rateavg -nan
scalar SingleCell.ue[3].cellularNic.rlc.am rlcDelayUl:mean -nan
scalar SingleCell.ue[3].cellularNic.rlc.am rlcDelayDl:mean -nan
scalar SingleCell.ue[3].cellularNic.rlc.am rlcPduPacketLossUl:mean -nan
scalar SingleCell.ue[3].cellularNic.rlc.am rlcPduPacketLossDl:mean -nan
scalar SingleCell.ue[3].cellularNic.rlc.am rlcPacketLossUl:mean -nan
scalar SingleCell.ue[3].cellularNic.rlc.am rlcPacketLossDl:mean -nan
scalar SingleCell.ue[3].cellularNic.rlc.am rlcCellPacketLossUl:mean -nan
scalar SingleCell.ue[3].cellularNic.rlc.am rlcCellPacketLossDl:mean -nan
scalar SingleCell.ue[3].cellularNic.mac harqTxAttemptsUl:mean 1.0113207547169811
scalar SingleCell.ue[3].cellularNic.mac harqTxAttemptsDl:mean 1.0075471698113208
scalar SingleCell.ue[3].cellularNic.mac harqErrorRate_4th_Ul:mean -nan
scalar SingleCell.ue[3].cellularNic.mac harqErrorRate_4th_Dl:mean -nan
scalar SingleCell.ue[3].cellularNic.mac harqErrorRate_3rd_Ul:mean -nan
scalar SingleCell.ue[3].cellularNic.mac harqErrorRate_3rd_Dl:mean -nan
scalar SingleCell.ue[3].cellularNic.mac harqErrorRate_2nd_Ul:mean 0
scalar SingleCell.ue[3].cellularNic.mac harqErrorRate_2nd_Dl:mean 0
scalar SingleCell.ue[3].cellularNic.mac harqErrorRate_1st_Ul:mean 0.011320754716981131
scalar SingleCell.ue[3].cellularNic.mac harqErrorRate_1st_Dl:mean 0.0075471698113207548
scalar SingleCell.ue[3].cellularNic.mac harqErrorRateUl:mean 0.011194029850746268
scalar SingleCell.ue[3].cellularNic.mac harqErrorRateDl:mean 0.0074906367041198503
scalar SingleCell.ue[3].cellularNic.mac macCellPacketLossUl:mean -nan
scalar SingleCell.ue[3].cellularNic.mac macCellPacketLossDl:mean -nan
scalar SingleCell.ue[3].cellularNic.mac macPacketLossUl:mean 0
scalar SingleCell.ue[3].cellularNic.mac macPacketLossDl:mean 0
scalar SingleCell.ue[3].cellularNic.mac macThroughputUl:simu5g_rateavg 1213.5849390048672
scalar SingleCell.ue[3].cellularNic.mac macThroughputDl:simu5g_rateavg 1261.792373767121
scalar SingleCell.ue[3].cellularNic.mac macDelayUl:mean 0.0044528301886792481
scalar SingleCell.ue[3].cellularNic.mac macDelayDl:mean 0.0040452830188679274
scalar SingleCell.ue[3].cellularNic.mac macCellThroughputUl:simu5g_rateavg -nan
scalar SingleCell.ue[3].cellularNic.mac macCellThroughputDl:simu5g_rateavg -nan
scalar SingleCell.ue[3].cellularNic.mac sentPacketToLowerLayer:count 803
scalar SingleCell.ue[3].cellularNic.mac sentPacketToLowerLayer:sum(packetBytes) 16883
scalar SingleCell.ue[3].cellularNic.mac sentPacketToUpperLayer:count 530
scalar SingleCell.ue[3].cellularNic.mac sentPacketToUpperLayer:sum(packetBytes) 16430
scalar SingleCell.ue[3].cellularNic.mac receivedPacketFromLowerLayer:count 1072
scalar SingleCell.ue[3].cellularNic.mac receivedPacketFromLowerLayer:sum(packetBytes) 17688
scalar SingleCell.ue[3].cellularNic.mac receivedPacketFromUpperLayer:count 530
scalar SingleCell.ue[3].cellularNic.mac receivedPacketFromUpperLayer:sum(packetBytes) 30740
scalar SingleCell.ue[3].cellularNic.mac macBufferOverFlowD2D:mean -nan
scalar SingleCell.ue[3].cellularNic.mac macBufferOverFlowUl:mean -nan
scalar SingleCell.ue[3].cellularNic.mac macBufferOverFlowDl:mean -nan
scalar SingleCell.ue[3].cellularNic.phy distance:mean 266.38972781796315
scalar SingleCell.ue[3].cellularNic.phy averageCqiUl:mean 12.656716417910447
scalar SingleCell.ue[3].cellularNic.phy averageCqiUl:count 268
scalar SingleCell.ue[3].cellularNic.phy averageCqiDl:mean 14.970149253731343
scalar SingleCell.ue[3].cellularNic.phy averageCqiDl:count 268
scalar SingleCell.ue[3].cellularNic.channelModel[0] measuredSinrUl:mean 26.484956268412475
scalar SingleCell.ue[3].cellularNic.channelModel[0] measuredSinrDl:mean 42.392082342849733
scalar SingleCell.ue[3].cellularNic.channelModel[0] rcvdSinrD2D:mean -nan
scalar SingleCell.ue[3].cellularNic.channelModel[0] rcvdSinrUl:mean 28.500239918736234
scalar SingleCell.ue[3].cellularNic.channelModel[0] rcvdSinrDl:mean 41.476972044429836
scalar SingleCell.ue[3].cellularNic packetDropInterfaceDown:count 0
scalar SingleCell.ue[3].cellularNic packetDropInterfaceDown:sum(packetBytes) 0
scalar SingleCell.ue[3].cellularNic packetDropNoCarrier:count 0
scalar SingleCell.ue[3].cellularNic packetDropNoCarrier:sum(packetBytes) 0
scalar SingleCell.ue[3].encap pauseSent:count 0
scalar SingleCell.ue[3].encap pauseSent:sum 0
scalar SingleCell.ue[3].encap decapPk:count 0
scalar SingleCell.ue[3].encap decapPk:sum(packetBytes) 0
scalar SingleCell.ue[3].encap encapPk:count 0
scalar SingleCell.ue[3].encap encapPk:sum(packetBytes) 0
scalar SingleCell.ue[3].ipv4.ip packetDropAddressResolutionFailed:count 0
scalar SingleCell.ue[3].ipv4.ip packetDropAddressResolutionFailed:sum(packetBytes) 0
scalar SingleCell.ue[3].ipv4.ip packetDropHopLimitReached:count 0
scalar SingleCell.ue[3].ipv4.ip packetDropHopLimitReached:sum(packetBytes) 0
scalar SingleCell.ue[3].ipv4.ip packetDropForwardingDisabled:count 0
scalar SingleCell.ue[3].ipv4.ip packetDropForwardingDisabled:sum(packetBytes) 0
scalar SingleCell.ue[3].ipv4.ip packetDropNoInterfaceFound:count 0
scalar SingleCell.ue[3].ipv4.ip packetDropNoInterfaceFound:sum(packetBytes) 0
scalar SingleCell.ue[3].ipv4.ip packetDropNoRouteFound:count 0
scalar SingleCell.ue[3].ipv4.ip packetDropNoRouteFound:sum(packetBytes) 0
scalar SingleCell.ue[3].ipv4.ip packetDropUndefined:count 0
scalar SingleCell.ue[3].ipv4.ip packetDropUndefined:sum(packetBytes) 0
scalar SingleCell.ue[3].ipv4.arp arpResolutionFailed:count 0
scalar SingleCell.ue[3].ipv4.arp arpResolutionCompleted:count 0
scalar SingleCell.ue[3].ipv4.arp arpResolutionInitiated:count 0
scalar SingleCell.ue[3].ipv4.arp arpReplySent:count 0
scalar SingleCell.ue[3].ipv4.arp arpReplySent:sum(packetBytes) 0
scalar SingleCell.ue[3].ipv4.arp arpRequestSent:count 0
scalar SingleCell.ue[3].ipv4.arp arpRequestSent:sum(packetBytes) 0
scalar SingleCell.ue[3].udp packetReceived:count 265
scalar SingleCell.ue[3].udp packetReceived:sum(packetBytes) 10070
scalar SingleCell.ue[3].udp packetSent:count 0
scalar SingleCell.ue[3].udp packetSent:sum(packetBytes) 0
scalar SingleCell.ue[3].udp passedUpPk:count 0
scalar SingleCell.ue[3].udp droppedPkWrongPort:count 265
scalar SingleCell.ue[3].udp droppedPkBadChecksum:count 0
scalar SingleCell.ue[4].lo[0].lo rcvdPkFromHl:count 0
scalar SingleCell.ue[4].lo[0].lo rcvdPkFromHl:sum(packetBytes) 0
scalar SingleCell.ue[4].lo[0].lo passedUpPk:count 0
scalar SingleCell.ue[4].lo[0].lo passedUpPk:sum(packetBytes) 0
scalar SingleCell.ue[4].lo[0] packetDropInterfaceDown:count 0
scalar SingleCell.ue[4].lo[0] packetDropInterfaceDown:sum(packetBytes) 0
scalar SingleCell.ue[4].lo[0] packetDropNoCarrier:count 0
scalar SingleCell.ue[4].lo[0] packetDropNoCarrier:sum(packetBytes) 0
scalar SingleCell.ue[4].cellularNic.pdcp sentPacketToLowerLayer:count 350
scalar SingleCell.ue[4].cellularNic.pdcp sentPacketToLowerLayer:sum(packetBytes) 19950
scalar SingleCell.ue[4].cellularNic.pdcp sentPacketToUpperLayer:count 350
scalar SingleCell.ue[4].cellularNic.pdcp sentPacketToUpperLayer:sum(packetBytes) 20300
scalar SingleCell.ue[4].cellularNic.pdcp receivedPacketFromLowerLayer:count 350
scalar SingleCell.ue[4].cellularNic.pdcp receivedPacketFromLowerLayer:sum(packetBytes) 20650
scalar SingleCell.ue[4].cellularNic.pdcp receivedPacketFromUpperLayer:count 350
scalar SingleCell.ue[4].cellularNic.pdcp receivedPacketFromUpperLayer:sum(packetBytes) 19600
scalar SingleCell.ue[4].cellularNic.rlc.tm rlcPacketLossUl:mean -nan
scalar SingleCell.ue[4].cellularNic.rlc.tm rlcPacketLossUl:sum 0
scalar SingleCell.ue[4].cellularNic.rlc.tm rlcPacketLossDl:mean -nan
scalar SingleCell.ue[4].cellularNic.rlc.tm rlcPacketLossDl:sum 0
scalar SingleCell.ue[4].cellularNic.rlc.tm sentPacketToLowerLayer:count 0
scalar SingleCell.ue[4].cellularNic.rlc.tm sentPacketToLowerLayer:sum(packetBytes) 0
scalar SingleCell.ue[4].cellularNic.rlc.tm sentPacketToUpperLayer:count 0
scalar SingleCell.ue[4].cellularNic.rlc.tm sentPacketToUpperLayer:sum(packetBytes) 0
scalar SingleCell.ue[4].cellularNic.rlc.tm receivedPacketFromLowerLayer:count 0
scalar SingleCell.ue[4].cellularNic.rlc.tm receivedPacketFromLowerLayer:sum(packetBytes) 0
scalar SingleCell.ue[4].cellularNic.rlc.tm receivedPacketFromUpperLayer:count 0
scalar SingleCell.ue[4].cellularNic.rlc.tm receivedPacketFromUpperLayer:sum(packetBytes) 0
[...]
scalar SingleCell.ue[49].cellularNic.mac sentPacketToUpperLayer:vector(packetBytes):endtime nan
scalar SingleCell.ue[49].cellularNic.mac sentPacketToLowerLayer:vector(packetBytes):count 0
scalar SingleCell.ue[49].cellularNic.mac sentPacketToLowerLayer:vector(packetBytes):sum 0
scalar SingleCell.ue[49].cellularNic.mac sentPacketToLowerLayer:vector(packetBytes):sumweights 0
scalar SingleCell.ue[49].cellularNic.mac sentPacketToLowerLayer:vector(packetBytes):mean -nan
scalar SingleCell.ue[49].cellularNic.mac sentPacketToLowerLayer:vector(packetBytes):stddev nan
scalar SingleCell.ue[49].cellularNic.mac sentPacketToLowerLayer:vector(packetBytes):min inf
scalar SingleCell.ue[49].cellularNic.mac sentPacketToLowerLayer:vector(packetBytes):max -inf
scalar SingleCell.ue[49].cellularNic.mac sentPacketToLowerLayer:vector(packetBytes):starttime nan
scalar SingleCell.ue[49].cellularNic.mac sentPacketToLowerLayer:vector(packetBytes):endtime nan
scalar SingleCell.ue[49].cellularNic.phy distance:vector:count 0
scalar SingleCell.ue[49].cellularNic.phy distance:vector:sum 0
scalar SingleCell.ue[49].cellularNic.phy distance:vector:sumweights 0
scalar SingleCell.ue[49].cellularNic.phy distance:vector:mean -nan
scalar SingleCell.ue[49].cellularNic.phy distance:vector:stddev nan
scalar SingleCell.ue[49].cellularNic.phy distance:vector:min inf
scalar SingleCell.ue[49].cellularNic.phy distance:vector:max -inf
scalar SingleCell.ue[49].cellularNic.phy distance:vector:starttime nan
scalar SingleCell.ue[49].cellularNic.phy distance:vector:endtime nan
scalar SingleCell.ue[49].cellularNic.phy servingCell:vector:count 0
scalar SingleCell.ue[49].cellularNic.phy servingCell:vector:sum 0
scalar SingleCell.ue[49].cellularNic.phy servingCell:vector:sumweights 0
scalar SingleCell.ue[49].cellularNic.phy servingCell:vector:mean -nan
scalar SingleCell.ue[49].cellularNic.phy servingCell:vector:stddev nan
scalar SingleCell.ue[49].cellularNic.phy servingCell:vector:min inf
scalar SingleCell.ue[49].cellularNic.phy servingCell:vector:max -inf
scalar SingleCell.ue[49].cellularNic.phy servingCell:vector:starttime nan
scalar SingleCell.ue[49].cellularNic.phy servingCell:vector:endtime nan
scalar SingleCell.ue[49].cellularNic.phy averageCqiDl:vector:count 0
scalar SingleCell.ue[49].cellularNic.phy averageCqiDl:vector:sum 0
scalar SingleCell.ue[49].cellularNic.phy averageCqiDl:vector:sumweights 0
scalar SingleCell.ue[49].cellularNic.phy averageCqiDl:vector:mean -nan
scalar SingleCell.ue[49].cellularNic.phy averageCqiDl:vector:stddev nan
scalar SingleCell.ue[49].cellularNic.phy averageCqiDl:vector:min inf
scalar SingleCell.ue[49].cellularNic.phy averageCqiDl:vector:max -inf
scalar SingleCell.ue[49].cellularNic.phy averageCqiDl:vector:starttime nan
scalar SingleCell.ue[49].cellularNic.phy averageCqiDl:vector:endtime nan
scalar SingleCell.ue[49].cellularNic.phy averageCqiUl:vector:count 0
scalar SingleCell.ue[49].cellularNic.phy averageCqiUl:vector:sum 0
scalar SingleCell.ue[49].cellularNic.phy averageCqiUl:vector:sumweights 0
scalar SingleCell.ue[49].cellularNic.phy averageCqiUl:vector:mean -nan
scalar SingleCell.ue[49].cellularNic.phy averageCqiUl:vector:stddev nan
scalar SingleCell.ue[49].cellularNic.phy averageCqiUl:vector:min inf
scalar SingleCell.ue[49].cellularNic.phy averageCqiUl:vector:max -inf
scalar SingleCell.ue[49].cellularNic.phy averageCqiUl:vector:starttime nan
scalar SingleCell.ue[49].cellularNic.phy averageCqiUl:vector:endtime nan
scalar SingleCell.ue[49].cellularNic.channelModel[0] rcvdSinrDl:vector:count 0
scalar SingleCell.ue[49].cellularNic.channelModel[0] rcvdSinrDl:vector:sum 0
scalar SingleCell.ue[49].cellularNic.channelModel[0] rcvdSinrDl:vector:sumweights 0
scalar SingleCell.ue[49].cellularNic.channelModel[0] rcvdSinrDl:vector:mean -nan
scalar SingleCell.ue[49].cellularNic.channelModel[0] rcvdSinrDl:vector:stddev nan
scalar SingleCell.ue[49].cellularNic.channelModel[0] rcvdSinrDl:vector:min inf
scalar SingleCell.ue[49].cellularNic.channelModel[0] rcvdSinrDl:vector:max -inf
scalar SingleCell.ue[49].cellularNic.channelModel[0] rcvdSinrDl:vector:starttime nan
scalar SingleCell.ue[49].cellularNic.channelModel[0] rcvdSinrDl:vector:endtime nan
scalar SingleCell.ue[49].cellularNic.channelModel[0] rcvdSinrUl:vector:count 0
scalar SingleCell.ue[49].cellularNic.channelModel[0] rcvdSinrUl:vector:sum 0
scalar SingleCell.ue[49].cellularNic.channelModel[0] rcvdSinrUl:vector:sumweights 0
scalar SingleCell.ue[49].cellularNic.channelModel[0] rcvdSinrUl:vector:mean -nan
scalar SingleCell.ue[49].cellularNic.channelModel[0] rcvdSinrUl:vector:stddev nan
scalar SingleCell.ue[49].cellularNic.channelModel[0] rcvdSinrUl:vector:min inf
scalar SingleCell.ue[49].cellularNic.channelModel[0] rcvdSinrUl:vector:max -inf
scalar SingleCell.ue[49].cellularNic.channelModel[0] rcvdSinrUl:vector:starttime nan
scalar SingleCell.ue[49].cellularNic.channelModel[0] rcvdSinrUl:vector:endtime nan
scalar SingleCell.ue[49].cellularNic.channelModel[0] rcvdSinrD2D:vector:count 0
scalar SingleCell.ue[49].cellularNic.channelModel[0] rcvdSinrD2D:vector:sum 0
scalar SingleCell.ue[49].cellularNic.channelModel[0] rcvdSinrD2D:vector:sumweights 0
scalar SingleCell.ue[49].cellularNic.channelModel[0] rcvdSinrD2D:vector:mean -nan
scalar SingleCell.ue[49].cellularNic.channelModel[0] rcvdSinrD2D:vector:stddev nan
scalar SingleCell.ue[49].cellularNic.channelModel[0] rcvdSinrD2D:vector:min inf
scalar SingleCell.ue[49].cellularNic.channelModel[0] rcvdSinrD2D:vector:max -inf
scalar SingleCell.ue[49].cellularNic.channelModel[0] rcvdSinrD2D:vector:starttime nan
scalar SingleCell.ue[49].cellularNic.channelModel[0] rcvdSinrD2D:vector:endtime nan
scalar SingleCell.ue[49].cellularNic.channelModel[0] measuredSinrDl:vector:count 0
scalar SingleCell.ue[49].cellularNic.channelModel[0] measuredSinrDl:vector:sum 0
scalar SingleCell.ue[49].cellularNic.channelModel[0] measuredSinrDl:vector:sumweights 0
scalar SingleCell.ue[49].cellularNic.channelModel[0] measuredSinrDl:vector:mean -nan
scalar SingleCell.ue[49].cellularNic.channelModel[0] measuredSinrDl:vector:stddev nan
scalar SingleCell.ue[49].cellularNic.channelModel[0] measuredSinrDl:vector:min inf
scalar SingleCell.ue[49].cellularNic.channelModel[0] measuredSinrDl:vector:max -inf
scalar SingleCell.ue[49].cellularNic.channelModel[0] measuredSinrDl:vector:starttime nan
scalar SingleCell.ue[49].cellularNic.channelModel[0] measuredSinrDl:vector:endtime nan
scalar SingleCell.ue[49].cellularNic.channelModel[0] measuredSinrUl:vector:count 0
scalar SingleCell.ue[49].cellularNic.channelModel[0] measuredSinrUl:vector:sum 0
scalar SingleCell.ue[49].cellularNic.channelModel[0] measuredSinrUl:vector:sumweights 0
scalar SingleCell.ue[49].cellularNic.channelModel[0] measuredSinrUl:vector:mean -nan
scalar SingleCell.ue[49].cellularNic.channelModel[0] measuredSinrUl:vector:stddev nan
scalar SingleCell.ue[49].cellularNic.channelModel[0] measuredSinrUl:vector:min inf
scalar SingleCell.ue[49].cellularNic.channelModel[0] measuredSinrUl:vector:max -inf
scalar SingleCell.ue[49].cellularNic.channelModel[0] measuredSinrUl:vector:starttime nan
scalar SingleCell.ue[49].cellularNic.channelModel[0] measuredSinrUl:vector:endtime nan
scalar SingleCell.ue[49].cellularNic packetDropInterfaceDown:vector(packetBytes):count 0
scalar SingleCell.ue[49].cellularNic packetDropInterfaceDown:vector(packetBytes):sum 0
scalar SingleCell.ue[49].cellularNic packetDropInterfaceDown:vector(packetBytes):sumweights 0
scalar SingleCell.ue[49].cellularNic packetDropInterfaceDown:vector(packetBytes):mean -nan
scalar SingleCell.ue[49].cellularNic packetDropInterfaceDown:vector(packetBytes):stddev nan
scalar SingleCell.ue[49].cellularNic packetDropInterfaceDown:vector(packetBytes):min inf
scalar SingleCell.ue[49].cellularNic packetDropInterfaceDown:vector(packetBytes):max -inf
scalar SingleCell.ue[49].cellularNic packetDropInterfaceDown:vector(packetBytes):starttime nan
scalar SingleCell.ue[49].cellularNic packetDropInterfaceDown:vector(packetBytes):endtime nan
scalar SingleCell.ue[49].cellularNic packetDropNoCarrier:vector(packetBytes):count 0
scalar SingleCell.ue[49].cellularNic packetDropNoCarrier:vector(packetBytes):sum 0
scalar SingleCell.ue[49].cellularNic packetDropNoCarrier:vector(packetBytes):sumweights 0
scalar SingleCell.ue[49].cellularNic packetDropNoCarrier:vector(packetBytes):mean -nan
scalar SingleCell.ue[49].cellularNic packetDropNoCarrier:vector(packetBytes):stddev nan
scalar SingleCell.ue[49].cellularNic packetDropNoCarrier:vector(packetBytes):min inf
scalar SingleCell.ue[49].cellularNic packetDropNoCarrier:vector(packetBytes):max -inf
scalar SingleCell.ue[49].cellularNic packetDropNoCarrier:vector(packetBytes):starttime nan
scalar SingleCell.ue[49].cellularNic packetDropNoCarrier:vector(packetBytes):endtime nan
scalar SingleCell.ue[49].encap encapPk:vector(packetBytes):count 0
scalar SingleCell.ue[49].encap encapPk:vector(packetBytes):sum 0
scalar SingleCell.ue[49].encap encapPk:vector(packetBytes):sumweights 0
scalar SingleCell.ue[49].encap encapPk:vector(packetBytes):mean -nan
scalar SingleCell.ue[49].encap encapPk:vector(packetBytes):stddev nan
scalar SingleCell.ue[49].encap encapPk:vector(packetBytes):min inf
scalar SingleCell.ue[49].encap encapPk:vector(packetBytes):max -inf
scalar SingleCell.ue[49].encap encapPk:vector(packetBytes):starttime nan
scalar SingleCell.ue[49].encap encapPk:vector(packetBytes):endtime nan
scalar SingleCell.ue[49].encap decapPk:vector(packetBytes):count 0
scalar SingleCell.ue[49].encap decapPk:vector(packetBytes):sum 0
scalar SingleCell.ue[49].encap decapPk:vector(packetBytes):sumweights 0
scalar SingleCell.ue[49].encap decapPk:vector(packetBytes):mean -nan
scalar SingleCell.ue[49].encap decapPk:vector(packetBytes):stddev nan
scalar SingleCell.ue[49].encap decapPk:vector(packetBytes):min inf
scalar SingleCell.ue[49].encap decapPk:vector(packetBytes):max -inf
scalar SingleCell.ue[49].encap decapPk:vector(packetBytes):starttime nan
scalar SingleCell.ue[49].encap decapPk:vector(packetBytes):endtime nan
scalar SingleCell.ue[49].encap pauseSent:vector:count 0
scalar SingleCell.ue[49].encap pauseSent:vector:sum 0
scalar SingleCell.ue[49].encap pauseSent:vector:sumweights 0
scalar SingleCell.ue[49].encap pauseSent:vector:mean -nan
scalar SingleCell.ue[49].encap pauseSent:vector:stddev nan
scalar SingleCell.ue[49].encap pauseSent:vector:min inf
scalar SingleCell.ue[49].encap pauseSent:vector:max -inf
scalar SingleCell.ue[49].encap pauseSent:vector:starttime nan
scalar SingleCell.ue[49].encap pauseSent:vector:endtime nan
scalar SingleCell.ue[49].ipv4.ip packetDropAddressResolutionFailed:vector(packetBytes):count 0
scalar SingleCell.ue[49].ipv4.ip packetDropAddressResolutionFailed:vector(packetBytes):sum 0
scalar SingleCell.ue[49].ipv4.ip packetDropAddressResolutionFailed:vector(packetBytes):sumweights 0
scalar SingleCell.ue[49].ipv4.ip packetDropAddressResolutionFailed:vector(packetBytes):mean -nan
scalar SingleCell.ue[49].ipv4.ip packetDropAddressResolutionFailed:vector(packetBytes):stddev nan
scalar SingleCell.ue[49].ipv4.ip packetDropAddressResolutionFailed:vector(packetBytes):min inf
scalar SingleCell.ue[49].ipv4.ip packetDropAddressResolutionFailed:vector(packetBytes):max -inf
scalar SingleCell.ue[49].ipv4.ip packetDropAddressResolutionFailed:vector(packetBytes):starttime nan
scalar SingleCell.ue[49].ipv4.ip packetDropAddressResolutionFailed:vector(packetBytes):endtime nan
scalar SingleCell.ue[49].ipv4.ip packetDropHopLimitReached:vector(packetBytes):count 0
scalar SingleCell.ue[49].ipv4.ip packetDropHopLimitReached:vector(packetBytes):sum 0
scalar SingleCell.ue[49].ipv4.ip packetDropHopLimitReached:vector(packetBytes):sumweights 0
scalar SingleCell.ue[49].ipv4.ip packetDropHopLimitReached:vector(packetBytes):mean -nan
scalar SingleCell.ue[49].ipv4.ip packetDropHopLimitReached:vector(packetBytes):stddev nan
scalar SingleCell.ue[49].ipv4.ip packetDropHopLimitReached:vector(packetBytes):min inf
scalar SingleCell.ue[49].ipv4.ip packetDropHopLimitReached:vector(packetBytes):max -inf
scalar SingleCell.ue[49].ipv4.ip packetDropHopLimitReached:vector(packetBytes):starttime nan
scalar SingleCell.ue[49].ipv4.ip packetDropHopLimitReached:vector(packetBytes):endtime nan
scalar SingleCell.ue[49].ipv4.ip packetDropForwardingDisabled:vector(packetBytes):count 0
scalar SingleCell.ue[49].ipv4.ip packetDropForwardingDisabled:vector(packetBytes):sum 0
scalar SingleCell.ue[49].ipv4.ip packetDropForwardingDisabled:vector(packetBytes):sumweights 0
scalar SingleCell.ue[49].ipv4.ip packetDropForwardingDisabled:vector(packetBytes):mean -nan
scalar SingleCell.ue[49].ipv4.ip packetDropForwardingDisabled:vector(packetBytes):stddev nan
scalar SingleCell.ue[49].ipv4.ip packetDropForwardingDisabled:vector(packetBytes):min inf
scalar SingleCell.ue[49].ipv4.ip packetDropForwardingDisabled:vector(packetBytes):max -inf
scalar SingleCell.ue[49].ipv4.ip packetDropForwardingDisabled:vector(packetBytes):starttime nan
scalar SingleCell.ue[49].ipv4.ip packetDropForwardingDisabled:vector(packetBytes):endtime nan
scalar SingleCell.ue[49].ipv4.ip packetDropNoInterfaceFound:vector(packetBytes):count 0
scalar SingleCell.ue[49].ipv4.ip packetDropNoInterfaceFound:vector(packetBytes):sum 0
scalar SingleCell.ue[49].ipv4.ip packetDropNoInterfaceFound:vector(packetBytes):sumweights 0
scalar SingleCell.ue[49].ipv4.ip packetDropNoInterfaceFound:vector(packetBytes):mean -nan
scalar SingleCell.ue[49].ipv4.ip packetDropNoInterfaceFound:vector(packetBytes):stddev nan
scalar SingleCell.ue[49].ipv4.ip packetDropNoInterfaceFound:vector(packetBytes):min inf
scalar SingleCell.ue[49].ipv4.ip packetDropNoInterfaceFound:vector(packetBytes):max -inf
scalar SingleCell.ue[49].ipv4.ip packetDropNoInterfaceFound:vector(packetBytes):starttime nan
scalar SingleCell.ue[49].ipv4.ip packetDropNoInterfaceFound:vector(packetBytes):endtime nan
scalar SingleCell.ue[49].ipv4.ip packetDropNoRouteFound:vector(packetBytes):count 0
scalar SingleCell.ue[49].ipv4.ip packetDropNoRouteFound:vector(packetBytes):sum 0
scalar SingleCell.ue[49].ipv4.ip packetDropNoRouteFound:vector(packetBytes):sumweights 0
scalar SingleCell.ue[49].ipv4.ip packetDropNoRouteFound:vector(packetBytes):mean -nan
scalar SingleCell.ue[49].ipv4.ip packetDropNoRouteFound:vector(packetBytes):stddev nan
scalar SingleCell.ue[49].ipv4.ip packetDropNoRouteFound:vector(packetBytes):min inf
scalar SingleCell.ue[49].ipv4.ip packetDropNoRouteFound:vector(packetBytes):max -inf
scalar SingleCell.ue[49].ipv4.ip packetDropNoRouteFound:vector(packetBytes):starttime nan
scalar SingleCell.ue[49].ipv4.ip packetDropNoRouteFound:vector(packetBytes):endtime nan
scalar SingleCell.ue[49].ipv4.ip packetDropUndefined:vector(packetBytes):count 0
scalar SingleCell.ue[49].ipv4.ip packetDropUndefined:vector(packetBytes):sum 0
scalar SingleCell.ue[49].ipv4.ip packetDropUndefined:vector(packetBytes):sumweights 0
scalar SingleCell.ue[49].ipv4.ip packetDropUndefined:vector(packetBytes):mean -nan
scalar SingleCell.ue[49].ipv4.ip packetDropUndefined:vector(packetBytes):stddev nan
scalar SingleCell.ue[49].ipv4.ip packetDropUndefined:vector(packetBytes):min inf
scalar SingleCell.ue[49].ipv4.ip packetDropUndefined:vector(packetBytes):max -inf
scalar SingleCell.ue[49].ipv4.ip packetDropUndefined:vector(packetBytes):starttime nan
scalar SingleCell.ue[49].ipv4.ip packetDropUndefined:vector(packetBytes):endtime nan
scalar SingleCell.ue[49].ipv4.arp arpRequestSent:vector(packetBytes):count 0
scalar SingleCell.ue[49].ipv4.arp arpRequestSent:vector(packetBytes):sum 0
scalar SingleCell.ue[49].ipv4.arp arpRequestSent:vector(packetBytes):sumweights 0
scalar SingleCell.ue[49].ipv4.arp arpRequestSent:vector(packetBytes):mean -nan
scalar SingleCell.ue[49].ipv4.arp arpRequestSent:vector(packetBytes):stddev nan
scalar SingleCell.ue[49].ipv4.arp arpRequestSent:vector(packetBytes):min inf
scalar SingleCell.ue[49].ipv4.arp arpRequestSent:vector(packetBytes):max -inf
scalar SingleCell.ue[49].ipv4.arp arpRequestSent:vector(packetBytes):starttime nan
scalar SingleCell.ue[49].ipv4.arp arpRequestSent:vector(packetBytes):endtime nan
scalar SingleCell.ue[49].ipv4.arp arpReplySent:vector(packetBytes):count 0
scalar SingleCell.ue[49].ipv4.arp arpReplySent:vector(packetBytes):sum 0
scalar SingleCell.ue[49].ipv4.arp arpReplySent:vector(packetBytes):sumweights 0
scalar SingleCell.ue[49].ipv4.arp arpReplySent:vector(packetBytes):mean -nan
scalar SingleCell.ue[49].ipv4.arp arpReplySent:vector(packetBytes):stddev nan
scalar SingleCell.ue[49].ipv4.arp arpReplySent:vector(packetBytes):min inf
scalar SingleCell.ue[49].ipv4.arp arpReplySent:vector(packetBytes):max -inf
scalar SingleCell.ue[49].ipv4.arp arpReplySent:vector(packetBytes):starttime nan
scalar SingleCell.ue[49].ipv4.arp arpReplySent:vector(packetBytes):endtime nan
scalar SingleCell.ue[49].udp packetSent:vector(packetBytes):count 0
scalar SingleCell.ue[49].udp packetSent:vector(packetBytes):sum 0
scalar SingleCell.ue[49].udp packetSent:vector(packetBytes):sumweights 0
scalar SingleCell.ue[49].udp packetSent:vector(packetBytes):mean -nan
scalar SingleCell.ue[49].udp packetSent:vector(packetBytes):stddev nan
scalar SingleCell.ue[49].udp packetSent:vector(packetBytes):min inf
scalar SingleCell.ue[49].udp packetSent:vector(packetBytes):max -inf
scalar SingleCell.ue[49].udp packetSent:vector(packetBytes):starttime nan
scalar SingleCell.ue[49].udp packetSent:vector(packetBytes):endtime nan
scalar SingleCell.ue[49].udp packetReceived:vector(packetBytes):count 0
scalar SingleCell.ue[49].udp packetReceived:vector(packetBytes):sum 0
scalar SingleCell.ue[49].udp packetReceived:vector(packetBytes):sumweights 0
scalar SingleCell.ue[49].udp packetReceived:vector(packetBytes):mean -nan
scalar SingleCell.ue[49].udp packetReceived:vector(packetBytes):stddev nan
scalar SingleCell.ue[49].udp packetReceived:vector(packetBytes):min inf
scalar SingleCell.ue[49].udp packetReceived:vector(packetBytes):max -inf
scalar SingleCell.ue[49].udp packetReceived:vector(packetBytes):starttime nan
scalar SingleCell.ue[49].udp packetReceived:vector(packetBytes):endtime nan
scalar SingleCell.ue[49].udp passedUpPk:vector(count):count 0
scalar SingleCell.ue[49].udp passedUpPk:vector(count):sum 0
scalar SingleCell.ue[49].udp passedUpPk:vector(count):sumweights 0
scalar SingleCell.ue[49].udp passedUpPk:vector(count):mean -nan
scalar SingleCell.ue[49].udp passedUpPk:vector(count):stddev nan
scalar SingleCell.ue[49].udp passedUpPk:vector(count):min inf
scalar SingleCell.ue[49].udp passedUpPk:vector(count):max -inf
scalar SingleCell.ue[49].udp passedUpPk:vector(count):starttime nan
scalar SingleCell.ue[49].udp passedUpPk:vector(count):endtime nan
scalar SingleCell.ue[49].udp droppedPkWrongPort:vector(count):count 0
scalar SingleCell.ue[49].udp droppedPkWrongPort:vector(count):sum 0
scalar SingleCell.ue[49].udp droppedPkWrongPort:vector(count):sumweights 0
scalar SingleCell.ue[49].udp droppedPkWrongPort:vector(count):mean -nan
scalar SingleCell.ue[49].udp droppedPkWrongPort:vector(count):stddev nan
scalar SingleCell.ue[49].udp droppedPkWrongPort:vector(count):min inf
scalar SingleCell.ue[49].udp droppedPkWrongPort:vector(count):max -inf
scalar SingleCell.ue[49].udp droppedPkWrongPort:vector(count):starttime nan
scalar SingleCell.ue[49].udp droppedPkWrongPort:vector(count):endtime nan
scalar SingleCell.ue[49].udp droppedPkBadChecksum:vector(count):count 0
scalar SingleCell.ue[49].udp droppedPkBadChecksum:vector(count):sum 0
scalar SingleCell.ue[49].udp droppedPkBadChecksum:vector(count):sumweights 0
scalar SingleCell.ue[49].udp droppedPkBadChecksum:vector(count):mean -nan
scalar SingleCell.ue[49].udp droppedPkBadChecksum:vector(count):stddev nan
scalar SingleCell.ue[49].udp droppedPkBadChecksum:vector(count):min inf
scalar SingleCell.ue[49].udp droppedPkBadChecksum:vector(count):max -inf
scalar SingleCell.ue[49].udp droppedPkBadChecksum:vector(count):starttime nan
scalar SingleCell.ue[49].udp droppedPkBadChecksum:vector(count):endtime nan

