version 3
run SchedulersTest-0-20260710-11:02:50-691655
attr configname SchedulersTest
attr datetime 20260710-11:02:50
attr datetimef 20260710-110250
attr experiment SchedulersTest
attr inifile omnetpp.ini
attr iterationvars "$sched=\"PF\", $numUEs=50, $pktSize=30B"
attr iterationvarsd sched=PF/numUEs=50/pktSize=30B
attr iterationvarsf sched=PF,numUEs=50,pktSize=30B-
attr measurement "$sched=\"PF\", $numUEs=50, $pktSize=30B"
attr network simu5g.simulations.lte.networks.SingleCell
attr processid 691655
attr repetition 0
attr replication #0
attr resultdir results
attr runnumber 0
attr seedset 0
itervar numUEs 50
itervar pktSize 30B
itervar sched "\"PF\""
config **.param-recording false
config image-path /home/andras/projects/Simu5G-fork/simu5g-fork/images
config output-scalar-file results/omnetpp.ini-SchedulersTest-#0.sca
config output-scalar-precision 17
config output-vector-file results/omnetpp.ini-SchedulersTest-#0.vec
config output-vector-precision 17
config record-eventlog false
config sim-time-limit 10s
config network simu5g.simulations.lte.networks.SingleCell
config sim-time-limit 10s
config repeat 1
config output-scalar-file "results/SchedulersTest/$sched=\"PF\", $numUEs=50, $pktSize=30B-0.sca"
config output-vector-file "results/SchedulersTest/$sched=\"PF\", $numUEs=50, $pktSize=30B-0.vec"
config seed-set 0
config **.ue[*].macCellId 1
config **.ue[*].masterId 1
config *.eNB.mobility.initFromDisplayString false
config *.eNB.mobility.initialX 0m
config *.eNB.mobility.initialY 0m
config **.schedulingDisciplineDl "\"PF\""
config **.numUe 50
config *.server.app[*].packetSize 30B
config *.server.numApps 50
config *.ue[*].mobility.initialMovementHeading "uniform(0deg, 360deg)"
config *.ue[*].mobility.constraintAreaMaxX 1000m
config *.ue[*].mobility.constraintAreaMaxY 1000m
config *.ue[*].mobility.constraintAreaMinX 0m
config *.ue[*].mobility.constraintAreaMinY 0m
config *.ue[*].mobility.initFromDisplayString false
config *.ue[*].mobility.initialX uniform(0m,300m)
config *.ue[*].mobility.initialY uniform(0m,300m)
config *.ue[*].mobility.initialZ 0m
config *.ue[*].mobility.speed 1mps
config *.ue[*].mobility.typename LinearMobility
config *.ue[*].app[*].typename VoipReceiver
config *.ue[*].app[0].localPort 3000
config *.server.app[*].destAddress "\"ue[\"+string(ancestorIndex(0))+\"]\""
config *.server.app[*].destPort 3000
config *.server.app[*].localPort 3088+ancestorIndex(0)
config *.server.app[*].typename VoipSender
config *.server.app[*].startTime uniform(0s,0.02s)
config sim-time-limit 20s
config output-scalar-file results/SchedulersTest/0.sca
config output-vector-file results/SchedulersTest/0.vec
config seed-set 0
config **.vector-recording false
config **.mobility.constraintAreaMinZ 0m
config **.mobility.constraintAreaMaxZ 0m
config **.mobility.initFromDisplayString true
config **.numBands 6
config **.ueTxPower 26dBm
config **.eNodeBTxPower 40dBm
config *.configurator.config "xmldoc(\"./demo.xml\")"

scalar SingleCell.server.lo[0].lo rcvdPkFromHl:count 0
scalar SingleCell.server.lo[0].lo rcvdPkFromHl:sum(packetBytes) 0
scalar SingleCell.server.lo[0].lo passedUpPk:count 0
scalar SingleCell.server.lo[0].lo passedUpPk:sum(packetBytes) 0
scalar SingleCell.server.lo[0] packetDropInterfaceDown:count 0
scalar SingleCell.server.lo[0] packetDropInterfaceDown:sum(packetBytes) 0
scalar SingleCell.server.lo[0] packetDropNoCarrier:count 0
scalar SingleCell.server.lo[0] packetDropNoCarrier:sum(packetBytes) 0
scalar SingleCell.server.ppp[0].queue queueLength:last 0
scalar SingleCell.server.ppp[0].queue queueLength:max 0
scalar SingleCell.server.ppp[0].queue queueLength:timeavg 0
scalar SingleCell.server.ppp[0].queue queueBitLength:last 0
scalar SingleCell.server.ppp[0].queue queueBitLength:max 0
scalar SingleCell.server.ppp[0].queue queueBitLength:timeavg 0
scalar SingleCell.server.ppp[0].queue outgoingPackets:count 16013
scalar SingleCell.server.ppp[0].queue outgoingPacketLengths:sum 7430032
scalar SingleCell.server.ppp[0].queue incomingPackets:count 16013
scalar SingleCell.server.ppp[0].queue incomingPacketLengths:sum 7430032
scalar SingleCell.server.ppp[0].queue droppedPacketsQueueOverflow:count 0
scalar SingleCell.server.ppp[0].queue droppedPacketLengthsQueueOverflow:sum 0
scalar SingleCell.server.ppp[0].ppp transmissionState:timeavg 8.3267599999972301e-05
scalar SingleCell.server.ppp[0].ppp rxPkOk:count 15976
scalar SingleCell.server.ppp[0].ppp rxPkOk:sum(packetBytes) 1006488
scalar SingleCell.server.ppp[0].ppp txPk:count 16013
scalar SingleCell.server.ppp[0].ppp txPk:sum(packetBytes) 1040845
scalar SingleCell.server.ppp[0].ppp rcvdPkFromHl:count 16013
scalar SingleCell.server.ppp[0].ppp rcvdPkFromHl:sum(packetBytes) 928754
scalar SingleCell.server.ppp[0].ppp passedUpPk:count 15976
scalar SingleCell.server.ppp[0].ppp passedUpPk:sum(packetBytes) 894656
scalar SingleCell.server.ppp[0].ppp packetDropIncorrectlyReceived:count 0
scalar SingleCell.server.ppp[0].ppp packetDropIncorrectlyReceived:sum(packetBytes) 0
scalar SingleCell.server.ppp[0].ppp packetDropInterfaceDown:count 0
scalar SingleCell.server.ppp[0].ppp packetDropInterfaceDown:sum(packetBytes) 0
scalar SingleCell.server.ppp[0] packetDropInterfaceDown:count 0
scalar SingleCell.server.ppp[0] packetDropInterfaceDown:sum(packetBytes) 0
scalar SingleCell.server.ppp[0] packetDropNoCarrier:count 0
scalar SingleCell.server.ppp[0] packetDropNoCarrier:sum(packetBytes) 0
scalar SingleCell.server.ipv4.ip packetDropAddressResolutionFailed:count 0
scalar SingleCell.server.ipv4.ip packetDropAddressResolutionFailed:sum(packetBytes) 0
scalar SingleCell.server.ipv4.ip packetDropHopLimitReached:count 0
scalar SingleCell.server.ipv4.ip packetDropHopLimitReached:sum(packetBytes) 0
scalar SingleCell.server.ipv4.ip packetDropForwardingDisabled:count 0
scalar SingleCell.server.ipv4.ip packetDropForwardingDisabled:sum(packetBytes) 0
scalar SingleCell.server.ipv4.ip packetDropNoInterfaceFound:count 0
scalar SingleCell.server.ipv4.ip packetDropNoInterfaceFound:sum(packetBytes) 0
scalar SingleCell.server.ipv4.ip packetDropNoRouteFound:count 0
scalar SingleCell.server.ipv4.ip packetDropNoRouteFound:sum(packetBytes) 0
scalar SingleCell.server.ipv4.ip packetDropUndefined:count 0
scalar SingleCell.server.ipv4.ip packetDropUndefined:sum(packetBytes) 0
scalar SingleCell.server.ipv4.arp arpResolutionFailed:count 0
scalar SingleCell.server.ipv4.arp arpResolutionCompleted:count 0
scalar SingleCell.server.ipv4.arp arpResolutionInitiated:count 0
scalar SingleCell.server.ipv4.arp arpReplySent:count 0
scalar SingleCell.server.ipv4.arp arpReplySent:sum(packetBytes) 0
scalar SingleCell.server.ipv4.arp arpRequestSent:count 0
scalar SingleCell.server.ipv4.arp arpRequestSent:sum(packetBytes) 0
scalar SingleCell.server.udp packetReceived:count 0
scalar SingleCell.server.udp packetReceived:sum(packetBytes) 0
scalar SingleCell.server.udp packetSent:count 16013
scalar SingleCell.server.udp packetSent:sum(packetBytes) 608494
scalar SingleCell.server.udp passedUpPk:count 0
scalar SingleCell.server.udp droppedPkWrongPort:count 0
scalar SingleCell.server.udp droppedPkBadChecksum:count 0
scalar SingleCell.server.app[0] voipGeneratedThroughput:simu5g_rateavg 1015.2996010313091
scalar SingleCell.server.app[1] voipGeneratedThroughput:simu5g_rateavg 1262.393266574604
scalar SingleCell.server.app[2] voipGeneratedThroughput:simu5g_rateavg 1356.9057795415376
scalar SingleCell.server.app[3] voipGeneratedThroughput:simu5g_rateavg 1283.2387921016002
scalar SingleCell.server.app[4] voipGeneratedThroughput:simu5g_rateavg 1024.9837686649737
scalar SingleCell.server.app[5] voipGeneratedThroughput:simu5g_rateavg 1220.0148066670783
scalar SingleCell.server.app[6] voipGeneratedThroughput:simu5g_rateavg 1331.7332619164981
scalar SingleCell.server.app[7] voipGeneratedThroughput:simu5g_rateavg 1394.3912760048054
scalar SingleCell.server.app[8] voipGeneratedThroughput:simu5g_rateavg 1342.7109088423426
scalar SingleCell.server.app[9] voipGeneratedThroughput:simu5g_rateavg 1501.2559966643607
scalar SingleCell.server.app[10] voipGeneratedThroughput:simu5g_rateavg 1301.96412571731
scalar SingleCell.server.app[11] voipGeneratedThroughput:simu5g_rateavg 1308.6396940213363
scalar SingleCell.server.app[12] voipGeneratedThroughput:simu5g_rateavg 1081.5424722477824
scalar SingleCell.server.app[13] voipGeneratedThroughput:simu5g_rateavg 1064.1586923577297
scalar SingleCell.server.app[14] voipGeneratedThroughput:simu5g_rateavg 945.2430079562248
scalar SingleCell.server.app[15] voipGeneratedThroughput:simu5g_rateavg 1356.1318266362839
scalar SingleCell.server.app[16] voipGeneratedThroughput:simu5g_rateavg 1203.8040708674118
scalar SingleCell.server.app[17] voipGeneratedThroughput:simu5g_rateavg 382.41257546297828
scalar SingleCell.server.app[18] voipGeneratedThroughput:simu5g_rateavg 702.92561369255702
scalar SingleCell.server.app[19] voipGeneratedThroughput:simu5g_rateavg 1152.324445661968
scalar SingleCell.server.app[20] voipGeneratedThroughput:simu5g_rateavg 1059.5229871306342
scalar SingleCell.server.app[21] voipGeneratedThroughput:simu5g_rateavg 890.94334188231323
scalar SingleCell.server.app[22] voipGeneratedThroughput:simu5g_rateavg 404.99176744733006
scalar SingleCell.server.app[23] voipGeneratedThroughput:simu5g_rateavg 750.37611189703955
scalar SingleCell.server.app[24] voipGeneratedThroughput:simu5g_rateavg 624.06157549111617
scalar SingleCell.server.app[25] voipGeneratedThroughput:simu5g_rateavg 1125.5330576780675
scalar SingleCell.server.app[26] voipGeneratedThroughput:simu5g_rateavg 693.26205692779763
scalar SingleCell.server.app[27] voipGeneratedThroughput:simu5g_rateavg 845.07422109976073
scalar SingleCell.server.app[28] voipGeneratedThroughput:simu5g_rateavg 941.50829480969321
scalar SingleCell.server.app[29] voipGeneratedThroughput:simu5g_rateavg 905.29898371005174
scalar SingleCell.server.app[30] voipGeneratedThroughput:simu5g_rateavg 722.36234083025579
scalar SingleCell.server.app[31] voipGeneratedThroughput:simu5g_rateavg 1256.4659722999697
scalar SingleCell.server.app[32] voipGeneratedThroughput:simu5g_rateavg 1327.3964310396709
scalar SingleCell.server.app[33] voipGeneratedThroughput:simu5g_rateavg 501.01363699994386
scalar SingleCell.server.app[34] voipGeneratedThroughput:simu5g_rateavg 926.42485364052766
scalar SingleCell.server.app[35] voipGeneratedThroughput:simu5g_rateavg 1000.2921383153439
scalar SingleCell.server.app[36] voipGeneratedThroughput:simu5g_rateavg 1113.8521697360654
scalar SingleCell.server.app[37] voipGeneratedThroughput:simu5g_rateavg 1160.9640536212924
scalar SingleCell.server.app[38] voipGeneratedThroughput:simu5g_rateavg 1062.6210944603188
scalar SingleCell.server.app[39] voipGeneratedThroughput:simu5g_rateavg 1152.6847333279998
scalar SingleCell.server.app[40] voipGeneratedThroughput:simu5g_rateavg 638.26632781227158
scalar SingleCell.server.app[41] voipGeneratedThroughput:simu5g_rateavg 734.39180024009045
scalar SingleCell.server.app[42] voipGeneratedThroughput:simu5g_rateavg 1074.8880945266192
scalar SingleCell.server.app[43] voipGeneratedThroughput:simu5g_rateavg 1171.9529136237738
scalar SingleCell.server.app[44] voipGeneratedThroughput:simu5g_rateavg 852.36516031470069
scalar SingleCell.server.app[45] voipGeneratedThroughput:simu5g_rateavg 853.6194101939808
scalar SingleCell.server.app[46] voipGeneratedThroughput:simu5g_rateavg 677.02339007633373
scalar SingleCell.server.app[47] voipGeneratedThroughput:simu5g_rateavg 1515.7544869885439
scalar SingleCell.server.app[48] voipGeneratedThroughput:simu5g_rateavg 1122.0014868789103
scalar SingleCell.server.app[49] voipGeneratedThroughput:simu5g_rateavg 652.54732345875163
scalar SingleCell.router.lo[0].lo rcvdPkFromHl:count 0
scalar SingleCell.router.lo[0].lo rcvdPkFromHl:sum(packetBytes) 0
scalar SingleCell.router.lo[0].lo passedUpPk:count 0
scalar SingleCell.router.lo[0].lo passedUpPk:sum(packetBytes) 0
scalar SingleCell.router.lo[0] packetDropInterfaceDown:count 0
scalar SingleCell.router.lo[0] packetDropInterfaceDown:sum(packetBytes) 0
scalar SingleCell.router.lo[0] packetDropNoCarrier:count 0
scalar SingleCell.router.lo[0] packetDropNoCarrier:sum(packetBytes) 0
scalar SingleCell.router.ppp[0].queue queueLength:last 0
scalar SingleCell.router.ppp[0].queue queueLength:max 0
scalar SingleCell.router.ppp[0].queue queueLength:timeavg 0
scalar SingleCell.router.ppp[0].queue queueBitLength:last 0
scalar SingleCell.router.ppp[0].queue queueBitLength:max 0
scalar SingleCell.router.ppp[0].queue queueBitLength:timeavg 0
scalar SingleCell.router.ppp[0].queue outgoingPackets:count 15976
scalar SingleCell.router.ppp[0].queue outgoingPacketLengths:sum 7157248
scalar SingleCell.router.ppp[0].queue incomingPackets:count 15976
scalar SingleCell.router.ppp[0].queue incomingPacketLengths:sum 7157248
scalar SingleCell.router.ppp[0].queue droppedPacketsQueueOverflow:count 0
scalar SingleCell.router.ppp[0].queue droppedPacketLengthsQueueOverflow:sum 0
scalar SingleCell.router.ppp[0].ppp transmissionState:timeavg 8.0519039999969109e-05
scalar SingleCell.router.ppp[0].ppp rxPkOk:count 16013
scalar SingleCell.router.ppp[0].ppp rxPkOk:sum(packetBytes) 1040845
scalar SingleCell.router.ppp[0].ppp txPk:count 15976
scalar SingleCell.router.ppp[0].ppp txPk:sum(packetBytes) 1006488
scalar SingleCell.router.ppp[0].ppp rcvdPkFromHl:count 15976
scalar SingleCell.router.ppp[0].ppp rcvdPkFromHl:sum(packetBytes) 894656
scalar SingleCell.router.ppp[0].ppp passedUpPk:count 16013
scalar SingleCell.router.ppp[0].ppp passedUpPk:sum(packetBytes) 928754
scalar SingleCell.router.ppp[0].ppp packetDropIncorrectlyReceived:count 0
scalar SingleCell.router.ppp[0].ppp packetDropIncorrectlyReceived:sum(packetBytes) 0
scalar SingleCell.router.ppp[0].ppp packetDropInterfaceDown:count 0
scalar SingleCell.router.ppp[0].ppp packetDropInterfaceDown:sum(packetBytes) 0
scalar SingleCell.router.ppp[0] packetDropInterfaceDown:count 0
scalar SingleCell.router.ppp[0] packetDropInterfaceDown:sum(packetBytes) 0
scalar SingleCell.router.ppp[0] packetDropNoCarrier:count 0
scalar SingleCell.router.ppp[0] packetDropNoCarrier:sum(packetBytes) 0
scalar SingleCell.router.ppp[1].queue queueLength:last 0
scalar SingleCell.router.ppp[1].queue queueLength:max 0
scalar SingleCell.router.ppp[1].queue queueLength:timeavg 0
scalar SingleCell.router.ppp[1].queue queueBitLength:last 0
scalar SingleCell.router.ppp[1].queue queueBitLength:max 0
scalar SingleCell.router.ppp[1].queue queueBitLength:timeavg 0
scalar SingleCell.router.ppp[1].queue outgoingPackets:count 16013
scalar SingleCell.router.ppp[1].queue outgoingPacketLengths:sum 7430032
scalar SingleCell.router.ppp[1].queue incomingPackets:count 16013
scalar SingleCell.router.ppp[1].queue incomingPacketLengths:sum 7430032
scalar SingleCell.router.ppp[1].queue droppedPacketsQueueOverflow:count 0
scalar SingleCell.router.ppp[1].queue droppedPacketLengthsQueueOverflow:sum 0
scalar SingleCell.router.ppp[1].ppp transmissionState:timeavg 8.3267599999972301e-05
scalar SingleCell.router.ppp[1].ppp rxPkOk:count 15976
scalar SingleCell.router.ppp[1].ppp rxPkOk:sum(packetBytes) 1006488
scalar SingleCell.router.ppp[1].ppp txPk:count 16013
scalar SingleCell.router.ppp[1].ppp txPk:sum(packetBytes) 1040845
scalar SingleCell.router.ppp[1].ppp rcvdPkFromHl:count 16013
scalar SingleCell.router.ppp[1].ppp rcvdPkFromHl:sum(packetBytes) 928754
scalar SingleCell.router.ppp[1].ppp passedUpPk:count 15976
scalar SingleCell.router.ppp[1].ppp passedUpPk:sum(packetBytes) 894656
scalar SingleCell.router.ppp[1].ppp packetDropIncorrectlyReceived:count 0
scalar SingleCell.router.ppp[1].ppp packetDropIncorrectlyReceived:sum(packetBytes) 0
scalar SingleCell.router.ppp[1].ppp packetDropInterfaceDown:count 0
scalar SingleCell.router.ppp[1].ppp packetDropInterfaceDown:sum(packetBytes) 0
scalar SingleCell.router.ppp[1] packetDropInterfaceDown:count 0
scalar SingleCell.router.ppp[1] packetDropInterfaceDown:sum(packetBytes) 0
scalar SingleCell.router.ppp[1] packetDropNoCarrier:count 0
scalar SingleCell.router.ppp[1] packetDropNoCarrier:sum(packetBytes) 0
scalar SingleCell.router.ipv4.ip packetDropAddressResolutionFailed:count 0
scalar SingleCell.router.ipv4.ip packetDropAddressResolutionFailed:sum(packetBytes) 0
scalar SingleCell.router.ipv4.ip packetDropHopLimitReached:count 0
scalar SingleCell.router.ipv4.ip packetDropHopLimitReached:sum(packetBytes) 0
scalar SingleCell.router.ipv4.ip packetDropForwardingDisabled:count 0
scalar SingleCell.router.ipv4.ip packetDropForwardingDisabled:sum(packetBytes) 0
scalar SingleCell.router.ipv4.ip packetDropNoInterfaceFound:count 0
scalar SingleCell.router.ipv4.ip packetDropNoInterfaceFound:sum(packetBytes) 0
scalar SingleCell.router.ipv4.ip packetDropNoRouteFound:count 0
scalar SingleCell.router.ipv4.ip packetDropNoRouteFound:sum(packetBytes) 0
scalar SingleCell.router.ipv4.ip packetDropUndefined:count 0
scalar SingleCell.router.ipv4.ip packetDropUndefined:sum(packetBytes) 0
scalar SingleCell.router.ipv4.arp arpResolutionFailed:count 0
scalar SingleCell.router.ipv4.arp arpResolutionCompleted:count 0
scalar SingleCell.router.ipv4.arp arpResolutionInitiated:count 0
scalar SingleCell.router.ipv4.arp arpReplySent:count 0
scalar SingleCell.router.ipv4.arp arpReplySent:sum(packetBytes) 0
scalar SingleCell.router.ipv4.arp arpRequestSent:count 0
scalar SingleCell.router.ipv4.arp arpRequestSent:sum(packetBytes) 0
scalar SingleCell.pgw.lo[0].lo rcvdPkFromHl:count 0
scalar SingleCell.pgw.lo[0].lo rcvdPkFromHl:sum(packetBytes) 0
scalar SingleCell.pgw.lo[0].lo passedUpPk:count 0
scalar SingleCell.pgw.lo[0].lo passedUpPk:sum(packetBytes) 0
scalar SingleCell.pgw.lo[0] packetDropInterfaceDown:count 0
scalar SingleCell.pgw.lo[0] packetDropInterfaceDown:sum(packetBytes) 0
scalar SingleCell.pgw.lo[0] packetDropNoCarrier:count 0
scalar SingleCell.pgw.lo[0] packetDropNoCarrier:sum(packetBytes) 0
scalar SingleCell.pgw.ppp[0].queue queueLength:last 0
scalar SingleCell.pgw.ppp[0].queue queueLength:max 0
scalar SingleCell.pgw.ppp[0].queue queueLength:timeavg 0
scalar SingleCell.pgw.ppp[0].queue queueBitLength:last 0
scalar SingleCell.pgw.ppp[0].queue queueBitLength:max 0
scalar SingleCell.pgw.ppp[0].queue queueBitLength:timeavg 0
scalar SingleCell.pgw.ppp[0].queue outgoingPackets:count 16013
scalar SingleCell.pgw.ppp[0].queue outgoingPacketLengths:sum 12041776
scalar SingleCell.pgw.ppp[0].queue incomingPackets:count 16013
scalar SingleCell.pgw.ppp[0].queue incomingPacketLengths:sum 12041776
scalar SingleCell.pgw.ppp[0].queue droppedPacketsQueueOverflow:count 0
scalar SingleCell.pgw.ppp[0].queue droppedPacketLengthsQueueOverflow:sum 0
scalar SingleCell.pgw.ppp[0].ppp transmissionState:timeavg 0.00012938504000001711
scalar SingleCell.pgw.ppp[0].ppp rxPkOk:count 15976
scalar SingleCell.pgw.ppp[0].ppp rxPkOk:sum(packetBytes) 1581624
scalar SingleCell.pgw.ppp[0].ppp txPk:count 16013
scalar SingleCell.pgw.ppp[0].ppp txPk:sum(packetBytes) 1617313
scalar SingleCell.pgw.ppp[0].ppp rcvdPkFromHl:count 16013
scalar SingleCell.pgw.ppp[0].ppp rcvdPkFromHl:sum(packetBytes) 1505222
scalar SingleCell.pgw.ppp[0].ppp passedUpPk:count 15976
scalar SingleCell.pgw.ppp[0].ppp passedUpPk:sum(packetBytes) 1469792
scalar SingleCell.pgw.ppp[0].ppp packetDropIncorrectlyReceived:count 0
scalar SingleCell.pgw.ppp[0].ppp packetDropIncorrectlyReceived:sum(packetBytes) 0
scalar SingleCell.pgw.ppp[0].ppp packetDropInterfaceDown:count 0
scalar SingleCell.pgw.ppp[0].ppp packetDropInterfaceDown:sum(packetBytes) 0
scalar SingleCell.pgw.ppp[0] packetDropInterfaceDown:count 0
scalar SingleCell.pgw.ppp[0] packetDropInterfaceDown:sum(packetBytes) 0
scalar SingleCell.pgw.ppp[0] packetDropNoCarrier:count 0
scalar SingleCell.pgw.ppp[0] packetDropNoCarrier:sum(packetBytes) 0
scalar SingleCell.pgw.ipv4.ip packetDropAddressResolutionFailed:count 0
scalar SingleCell.pgw.ipv4.ip packetDropAddressResolutionFailed:sum(packetBytes) 0
scalar SingleCell.pgw.ipv4.ip packetDropHopLimitReached:count 0
scalar SingleCell.pgw.ipv4.ip packetDropHopLimitReached:sum(packetBytes) 0
scalar SingleCell.pgw.ipv4.ip packetDropForwardingDisabled:count 0
scalar SingleCell.pgw.ipv4.ip packetDropForwardingDisabled:sum(packetBytes) 0
scalar SingleCell.pgw.ipv4.ip packetDropNoInterfaceFound:count 0
scalar SingleCell.pgw.ipv4.ip packetDropNoInterfaceFound:sum(packetBytes) 0
scalar SingleCell.pgw.ipv4.ip packetDropNoRouteFound:count 0
scalar SingleCell.pgw.ipv4.ip packetDropNoRouteFound:sum(packetBytes) 0
scalar SingleCell.pgw.ipv4.ip packetDropUndefined:count 0
scalar SingleCell.pgw.ipv4.ip packetDropUndefined:sum(packetBytes) 0
scalar SingleCell.pgw.ipv4.arp arpResolutionFailed:count 0
scalar SingleCell.pgw.ipv4.arp arpResolutionCompleted:count 0
scalar SingleCell.pgw.ipv4.arp arpResolutionInitiated:count 0
scalar SingleCell.pgw.ipv4.arp arpReplySent:count 0
scalar SingleCell.pgw.ipv4.arp arpReplySent:sum(packetBytes) 0
scalar SingleCell.pgw.ipv4.arp arpRequestSent:count 0
scalar SingleCell.pgw.ipv4.arp arpRequestSent:sum(packetBytes) 0
scalar SingleCell.pgw.pppIf.queue queueLength:last 0
scalar SingleCell.pgw.pppIf.queue queueLength:max 0
scalar SingleCell.pgw.pppIf.queue queueLength:timeavg 0
scalar SingleCell.pgw.pppIf.queue queueBitLength:last 0
scalar SingleCell.pgw.pppIf.queue queueBitLength:max 0
scalar SingleCell.pgw.pppIf.queue queueBitLength:timeavg 0
scalar SingleCell.pgw.pppIf.queue outgoingPackets:count 15976
scalar SingleCell.pgw.pppIf.queue outgoingPacketLengths:sum 7157248
scalar SingleCell.pgw.pppIf.queue incomingPackets:count 15976
scalar SingleCell.pgw.pppIf.queue incomingPacketLengths:sum 7157248
scalar SingleCell.pgw.pppIf.queue droppedPacketsQueueOverflow:count 0
scalar SingleCell.pgw.pppIf.queue droppedPacketLengthsQueueOverflow:sum 0
scalar SingleCell.pgw.pppIf.ppp transmissionState:timeavg 8.0519039999969109e-05
scalar SingleCell.pgw.pppIf.ppp rxPkOk:count 16013
scalar SingleCell.pgw.pppIf.ppp rxPkOk:sum(packetBytes) 1040845
scalar SingleCell.pgw.pppIf.ppp txPk:count 15976
scalar SingleCell.pgw.pppIf.ppp txPk:sum(packetBytes) 1006488
scalar SingleCell.pgw.pppIf.ppp rcvdPkFromHl:count 15976
scalar SingleCell.pgw.pppIf.ppp rcvdPkFromHl:sum(packetBytes) 894656
scalar SingleCell.pgw.pppIf.ppp passedUpPk:count 16013
scalar SingleCell.pgw.pppIf.ppp passedUpPk:sum(packetBytes) 928754
scalar SingleCell.pgw.pppIf.ppp packetDropIncorrectlyReceived:count 0
scalar SingleCell.pgw.pppIf.ppp packetDropIncorrectlyReceived:sum(packetBytes) 0
scalar SingleCell.pgw.pppIf.ppp packetDropInterfaceDown:count 0
scalar SingleCell.pgw.pppIf.ppp packetDropInterfaceDown:sum(packetBytes) 0
scalar SingleCell.pgw.pppIf packetDropInterfaceDown:count 0
scalar SingleCell.pgw.pppIf packetDropInterfaceDown:sum(packetBytes) 0
scalar SingleCell.pgw.pppIf packetDropNoCarrier:count 0
scalar SingleCell.pgw.pppIf packetDropNoCarrier:sum(packetBytes) 0
scalar SingleCell.pgw.udp packetReceived:count 15976
scalar SingleCell.pgw.udp packetReceived:sum(packetBytes) 1150272
scalar SingleCell.pgw.udp packetSent:count 16013
scalar SingleCell.pgw.udp packetSent:sum(packetBytes) 1184962
scalar SingleCell.pgw.udp passedUpPk:count 15976
scalar SingleCell.pgw.udp droppedPkWrongPort:count 0
scalar SingleCell.pgw.udp droppedPkBadChecksum:count 0
scalar SingleCell.eNB.cellularNic.pdcp sentPacketToLowerLayer:count 16013
scalar SingleCell.eNB.cellularNic.pdcp sentPacketToLowerLayer:sum(packetBytes) 944767
scalar SingleCell.eNB.cellularNic.pdcp sentPacketToUpperLayer:count 15980
scalar SingleCell.eNB.cellularNic.pdcp sentPacketToUpperLayer:sum(packetBytes) 894880
scalar SingleCell.eNB.cellularNic.pdcp receivedPacketFromLowerLayer:count 15980
scalar SingleCell.eNB.cellularNic.pdcp receivedPacketFromLowerLayer:sum(packetBytes) 910860
scalar SingleCell.eNB.cellularNic.pdcp receivedPacketFromUpperLayer:count 16013
scalar SingleCell.eNB.cellularNic.pdcp receivedPacketFromUpperLayer:sum(packetBytes) 928754
scalar SingleCell.eNB.cellularNic.rlc.tm rlcPacketLossUl:mean -nan
scalar SingleCell.eNB.cellularNic.rlc.tm rlcPacketLossUl:sum 0
scalar SingleCell.eNB.cellularNic.rlc.tm rlcPacketLossDl:mean -nan
scalar SingleCell.eNB.cellularNic.rlc.tm rlcPacketLossDl:sum 0
scalar SingleCell.eNB.cellularNic.rlc.tm sentPacketToLowerLayer:count 0
scalar SingleCell.eNB.cellularNic.rlc.tm sentPacketToLowerLayer:sum(packetBytes) 0
scalar SingleCell.eNB.cellularNic.rlc.tm sentPacketToUpperLayer:count 0
scalar SingleCell.eNB.cellularNic.rlc.tm sentPacketToUpperLayer:sum(packetBytes) 0
scalar SingleCell.eNB.cellularNic.rlc.tm receivedPacketFromLowerLayer:count 0
scalar SingleCell.eNB.cellularNic.rlc.tm receivedPacketFromLowerLayer:sum(packetBytes) 0
scalar SingleCell.eNB.cellularNic.rlc.tm receivedPacketFromUpperLayer:count 0
scalar SingleCell.eNB.cellularNic.rlc.tm receivedPacketFromUpperLayer:sum(packetBytes) 0
scalar SingleCell.eNB.cellularNic.rlc.um rlcCellThroughputUl:simu5g_rateavg 200646.02989702614
scalar SingleCell.eNB.cellularNic.rlc.um rlcCellThroughputDl:simu5g_rateavg 200621.32493544027
scalar SingleCell.eNB.cellularNic.rlc.um rlcPduThroughputUl:simu5g_rateavg -nan
scalar SingleCell.eNB.cellularNic.rlc.um rlcPduThroughputDl:simu5g_rateavg -nan
scalar SingleCell.eNB.cellularNic.rlc.um rlcPduDelayUl:mean -nan
scalar SingleCell.eNB.cellularNic.rlc.um rlcPduDelayDl:mean -nan
scalar SingleCell.eNB.cellularNic.rlc.um rlcThroughputUl:simu5g_rateavg -nan
scalar SingleCell.eNB.cellularNic.rlc.um rlcThroughputDl:simu5g_rateavg -nan
scalar SingleCell.eNB.cellularNic.rlc.um rlcDelayUl:mean -nan
scalar SingleCell.eNB.cellularNic.rlc.um rlcDelayDl:mean -nan
scalar SingleCell.eNB.cellularNic.rlc.um sentPacketToLowerLayer:count 16118
scalar SingleCell.eNB.cellularNic.rlc.um sentPacketToLowerLayer:sum(packetBytes) 977003
scalar SingleCell.eNB.cellularNic.rlc.um sentPacketToUpperLayer:count 15980
scalar SingleCell.eNB.cellularNic.rlc.um sentPacketToUpperLayer:sum(packetBytes) 910860
scalar SingleCell.eNB.cellularNic.rlc.um receivedPacketFromLowerLayer:count 17957
scalar SingleCell.eNB.cellularNic.rlc.um receivedPacketFromLowerLayer:sum(packetBytes) 947472
scalar SingleCell.eNB.cellularNic.rlc.um receivedPacketFromUpperLayer:count 16013
scalar SingleCell.eNB.cellularNic.rlc.um receivedPacketFromUpperLayer:sum(packetBytes) 944767
scalar SingleCell.eNB.cellularNic.rlc.am rlcPacketLossTotal:mean -nan
scalar SingleCell.eNB.cellularNic.rlc.am rlcCellThroughputUl:simu5g_rateavg -nan
scalar SingleCell.eNB.cellularNic.rlc.am rlcCellThroughputDl:simu5g_rateavg -nan
scalar SingleCell.eNB.cellularNic.rlc.am rlcPduThroughputUl:simu5g_rateavg -nan
scalar SingleCell.eNB.cellularNic.rlc.am rlcPduThroughputDl:simu5g_rateavg -nan
scalar SingleCell.eNB.cellularNic.rlc.am rlcPduDelayUl:mean -nan
scalar SingleCell.eNB.cellularNic.rlc.am rlcPduDelayDl:mean -nan
scalar SingleCell.eNB.cellularNic.rlc.am rlcThroughputUl:simu5g_rateavg -nan
scalar SingleCell.eNB.cellularNic.rlc.am rlcThroughputDl:simu5g_rateavg -nan
scalar SingleCell.eNB.cellularNic.rlc.am rlcDelayUl:mean -nan
scalar SingleCell.eNB.cellularNic.rlc.am rlcDelayDl:mean -nan
scalar SingleCell.eNB.cellularNic.rlc.am rlcPduPacketLossUl:mean -nan
scalar SingleCell.eNB.cellularNic.rlc.am rlcPduPacketLossDl:mean -nan
scalar SingleCell.eNB.cellularNic.rlc.am rlcPacketLossUl:mean -nan
scalar SingleCell.eNB.cellularNic.rlc.am rlcPacketLossDl:mean -nan
scalar SingleCell.eNB.cellularNic.rlc.am rlcCellPacketLossUl:mean -nan
scalar SingleCell.eNB.cellularNic.rlc.am rlcCellPacketLossDl:mean -nan
scalar SingleCell.eNB.cellularNic.mac avgServedBlocksUl:mean 1.8971
scalar SingleCell.eNB.cellularNic.mac avgServedBlocksDl:mean 1.7403999999999999
scalar SingleCell.eNB.cellularNic.mac harqTxAttemptsUl:mean -nan
scalar SingleCell.eNB.cellularNic.mac harqTxAttemptsDl:mean -nan
scalar SingleCell.eNB.cellularNic.mac harqErrorRate_4th_Ul:mean -nan
scalar SingleCell.eNB.cellularNic.mac harqErrorRate_4th_Dl:mean -nan
scalar SingleCell.eNB.cellularNic.mac harqErrorRate_3rd_Ul:mean -nan
scalar SingleCell.eNB.cellularNic.mac harqErrorRate_3rd_Dl:mean -nan
scalar SingleCell.eNB.cellularNic.mac harqErrorRate_2nd_Ul:mean -nan
scalar SingleCell.eNB.cellularNic.mac harqErrorRate_2nd_Dl:mean -nan
scalar SingleCell.eNB.cellularNic.mac harqErrorRate_1st_Ul:mean -nan
scalar SingleCell.eNB.cellularNic.mac harqErrorRate_1st_Dl:mean -nan
scalar SingleCell.eNB.cellularNic.mac harqErrorRateUl:mean -nan
scalar SingleCell.eNB.cellularNic.mac harqErrorRateDl:mean -nan
scalar SingleCell.eNB.cellularNic.mac macCellPacketLossUl:mean 0
scalar SingleCell.eNB.cellularNic.mac macCellPacketLossDl:mean 0
scalar SingleCell.eNB.cellularNic.mac macPacketLossUl:mean -nan
scalar SingleCell.eNB.cellularNic.mac macPacketLossDl:mean -nan
scalar SingleCell.eNB.cellularNic.mac macThroughputUl:simu5g_rateavg -nan
scalar SingleCell.eNB.cellularNic.mac macThroughputDl:simu5g_rateavg -nan
scalar SingleCell.eNB.cellularNic.mac macDelayUl:mean -nan
scalar SingleCell.eNB.cellularNic.mac macDelayDl:mean -nan
scalar SingleCell.eNB.cellularNic.mac macCellThroughputUl:simu5g_rateavg 215644.02632839963
scalar SingleCell.eNB.cellularNic.mac macCellThroughputDl:simu5g_rateavg 215623.10940088192
scalar SingleCell.eNB.cellularNic.mac sentPacketToLowerLayer:count 69647
scalar SingleCell.eNB.cellularNic.mac sentPacketToLowerLayer:sum(packetBytes) 1074721
scalar SingleCell.eNB.cellularNic.mac sentPacketToUpperLayer:count 34075
scalar SingleCell.eNB.cellularNic.mac sentPacketToUpperLayer:sum(packetBytes) 963590
scalar SingleCell.eNB.cellularNic.mac receivedPacketFromLowerLayer:count 134761
scalar SingleCell.eNB.cellularNic.mac receivedPacketFromLowerLayer:sum(packetBytes) 1112925
scalar SingleCell.eNB.cellularNic.mac receivedPacketFromUpperLayer:count 32131
scalar SingleCell.eNB.cellularNic.mac receivedPacketFromUpperLayer:sum(packetBytes) 1953796
scalar SingleCell.eNB.cellularNic.mac macBufferOverFlowD2D:mean -nan
scalar SingleCell.eNB.cellularNic.mac macBufferOverFlowUl:mean -nan
scalar SingleCell.eNB.cellularNic.mac macBufferOverFlowDl:mean -nan
scalar SingleCell.eNB.cellularNic.channelModel[0] measuredSinrUl:mean -nan
scalar SingleCell.eNB.cellularNic.channelModel[0] measuredSinrDl:mean -nan
scalar SingleCell.eNB.cellularNic.channelModel[0] rcvdSinrD2D:mean -nan
scalar SingleCell.eNB.cellularNic.channelModel[0] rcvdSinrUl:mean -nan
scalar SingleCell.eNB.cellularNic.channelModel[0] rcvdSinrDl:mean -nan
scalar SingleCell.eNB.cellularNic packetDropInterfaceDown:count 0
scalar SingleCell.eNB.cellularNic packetDropInterfaceDown:sum(packetBytes) 0
scalar SingleCell.eNB.cellularNic packetDropNoCarrier:count 0
scalar SingleCell.eNB.cellularNic packetDropNoCarrier:sum(packetBytes) 0
scalar SingleCell.eNB.pppIf.queue queueLength:last 3
scalar SingleCell.eNB.pppIf.queue queueLength:max 18
scalar SingleCell.eNB.pppIf.queue queueLength:timeavg 9.8659440000008208e-05
scalar SingleCell.eNB.pppIf.queue queueBitLength:last 2208
scalar SingleCell.eNB.pppIf.queue queueBitLength:max 13248
scalar SingleCell.eNB.pppIf.queue queueBitLength:timeavg 0.072613347840004075
scalar SingleCell.eNB.pppIf.queue outgoingPackets:count 15977
scalar SingleCell.eNB.pppIf.queue outgoingPacketLengths:sum 11759072
scalar SingleCell.eNB.pppIf.queue incomingPackets:count 15980
scalar SingleCell.eNB.pppIf.queue incomingPacketLengths:sum 11761280
scalar SingleCell.eNB.pppIf.queue droppedPacketsQueueOverflow:count 0
scalar SingleCell.eNB.pppIf.queue droppedPacketLengthsQueueOverflow:sum 0
scalar SingleCell.eNB.pppIf.ppp transmissionState:timeavg 0.00012652991999997611
scalar SingleCell.eNB.pppIf.ppp rxPkOk:count 16013
scalar SingleCell.eNB.pppIf.ppp rxPkOk:sum(packetBytes) 1617313
scalar SingleCell.eNB.pppIf.ppp txPk:count 15977
scalar SingleCell.eNB.pppIf.ppp txPk:sum(packetBytes) 1581723
scalar SingleCell.eNB.pppIf.ppp rcvdPkFromHl:count 15977
scalar SingleCell.eNB.pppIf.ppp rcvdPkFromHl:sum(packetBytes) 1469884
scalar SingleCell.eNB.pppIf.ppp passedUpPk:count 16013
scalar SingleCell.eNB.pppIf.ppp passedUpPk:sum(packetBytes) 1505222
scalar SingleCell.eNB.pppIf.ppp packetDropIncorrectlyReceived:count 0
scalar SingleCell.eNB.pppIf.ppp packetDropIncorrectlyReceived:sum(packetBytes) 0
scalar SingleCell.eNB.pppIf.ppp packetDropInterfaceDown:count 0
scalar SingleCell.eNB.pppIf.ppp packetDropInterfaceDown:sum(packetBytes) 0
scalar SingleCell.eNB.pppIf packetDropInterfaceDown:count 0
scalar SingleCell.eNB.pppIf packetDropInterfaceDown:sum(packetBytes) 0
scalar SingleCell.eNB.pppIf packetDropNoCarrier:count 0
scalar SingleCell.eNB.pppIf packetDropNoCarrier:sum(packetBytes) 0
scalar SingleCell.eNB.pppMEHostIf.queue queueLength:last 0
scalar SingleCell.eNB.pppMEHostIf.queue queueLength:max 0
scalar SingleCell.eNB.pppMEHostIf.queue queueLength:timeavg 0
scalar SingleCell.eNB.pppMEHostIf.queue queueBitLength:last 0
scalar SingleCell.eNB.pppMEHostIf.queue queueBitLength:max 0
scalar SingleCell.eNB.pppMEHostIf.queue queueBitLength:timeavg 0
scalar SingleCell.eNB.pppMEHostIf.queue outgoingPackets:count 0
scalar SingleCell.eNB.pppMEHostIf.queue outgoingPacketLengths:sum 0
scalar SingleCell.eNB.pppMEHostIf.queue incomingPackets:count 0
scalar SingleCell.eNB.pppMEHostIf.queue incomingPacketLengths:sum 0
scalar SingleCell.eNB.pppMEHostIf.queue droppedPacketsQueueOverflow:count 0
scalar SingleCell.eNB.pppMEHostIf.queue droppedPacketLengthsQueueOverflow:sum 0
scalar SingleCell.eNB.pppMEHostIf.ppp transmissionState:timeavg 0
scalar SingleCell.eNB.pppMEHostIf.ppp rxPkOk:count 0
scalar SingleCell.eNB.pppMEHostIf.ppp rxPkOk:sum(packetBytes) 0
scalar SingleCell.eNB.pppMEHostIf.ppp txPk:count 0
scalar SingleCell.eNB.pppMEHostIf.ppp txPk:sum(packetBytes) 0
scalar SingleCell.eNB.pppMEHostIf.ppp rcvdPkFromHl:count 0
scalar SingleCell.eNB.pppMEHostIf.ppp rcvdPkFromHl:sum(packetBytes) 0
scalar SingleCell.eNB.pppMEHostIf.ppp passedUpPk:count 0
scalar SingleCell.eNB.pppMEHostIf.ppp passedUpPk:sum(packetBytes) 0
scalar SingleCell.eNB.pppMEHostIf.ppp packetDropIncorrectlyReceived:count 0
scalar SingleCell.eNB.pppMEHostIf.ppp packetDropIncorrectlyReceived:sum(packetBytes) 0
scalar SingleCell.eNB.pppMEHostIf.ppp packetDropInterfaceDown:count 0
scalar SingleCell.eNB.pppMEHostIf.ppp packetDropInterfaceDown:sum(packetBytes) 0
scalar SingleCell.eNB.pppMEHostIf packetDropInterfaceDown:count 0
scalar SingleCell.eNB.pppMEHostIf packetDropInterfaceDown:sum(packetBytes) 0
scalar SingleCell.eNB.pppMEHostIf packetDropNoCarrier:count 0
scalar SingleCell.eNB.pppMEHostIf packetDropNoCarrier:sum(packetBytes) 0
scalar SingleCell.eNB.ipv4.ip packetDropAddressResolutionFailed:count 0
scalar SingleCell.eNB.ipv4.ip packetDropAddressResolutionFailed:sum(packetBytes) 0
scalar SingleCell.eNB.ipv4.ip packetDropHopLimitReached:count 0
scalar SingleCell.eNB.ipv4.ip packetDropHopLimitReached:sum(packetBytes) 0
scalar SingleCell.eNB.ipv4.ip packetDropForwardingDisabled:count 0
scalar SingleCell.eNB.ipv4.ip packetDropForwardingDisabled:sum(packetBytes) 0
scalar SingleCell.eNB.ipv4.ip packetDropNoInterfaceFound:count 0
scalar SingleCell.eNB.ipv4.ip packetDropNoInterfaceFound:sum(packetBytes) 0
scalar SingleCell.eNB.ipv4.ip packetDropNoRouteFound:count 0
scalar SingleCell.eNB.ipv4.ip packetDropNoRouteFound:sum(packetBytes) 0
scalar SingleCell.eNB.ipv4.ip packetDropUndefined:count 0
scalar SingleCell.eNB.ipv4.ip packetDropUndefined:sum(packetBytes) 0
scalar SingleCell.eNB.ipv4.arp arpResolutionFailed:count 0
scalar SingleCell.eNB.ipv4.arp arpResolutionCompleted:count 0
scalar SingleCell.eNB.ipv4.arp arpResolutionInitiated:count 0
scalar SingleCell.eNB.ipv4.arp arpReplySent:count 0
scalar SingleCell.eNB.ipv4.arp arpReplySent:sum(packetBytes) 0
scalar SingleCell.eNB.ipv4.arp arpRequestSent:count 0
scalar SingleCell.eNB.ipv4.arp arpRequestSent:sum(packetBytes) 0
scalar SingleCell.eNB.udp packetReceived:count 16013
scalar SingleCell.eNB.udp packetReceived:sum(packetBytes) 1184962
scalar SingleCell.eNB.udp packetSent:count 15980
scalar SingleCell.eNB.udp packetSent:sum(packetBytes) 1150560
scalar SingleCell.eNB.udp passedUpPk:count 16013
scalar SingleCell.eNB.udp droppedPkWrongPort:count 0
scalar SingleCell.eNB.udp droppedPkBadChecksum:count 0
scalar SingleCell.ue[0].lo[0].lo rcvdPkFromHl:count 0
scalar SingleCell.ue[0].lo[0].lo rcvdPkFromHl:sum(packetBytes) 0
scalar SingleCell.ue[0].lo[0].lo passedUpPk:count 0
scalar SingleCell.ue[0].lo[0].lo passedUpPk:sum(packetBytes) 0
scalar SingleCell.ue[0].lo[0] packetDropInterfaceDown:count 0
scalar SingleCell.ue[0].lo[0] packetDropInterfaceDown:sum(packetBytes) 0
scalar SingleCell.ue[0].lo[0] packetDropNoCarrier:count 0
scalar SingleCell.ue[0].lo[0] packetDropNoCarrier:sum(packetBytes) 0
scalar SingleCell.ue[0].cellularNic.pdcp sentPacketToLowerLayer:count 293
scalar SingleCell.ue[0].cellularNic.pdcp sentPacketToLowerLayer:sum(packetBytes) 16701
scalar SingleCell.ue[0].cellularNic.pdcp sentPacketToUpperLayer:count 293
scalar SingleCell.ue[0].cellularNic.pdcp sentPacketToUpperLayer:sum(packetBytes) 16994
scalar SingleCell.ue[0].cellularNic.pdcp receivedPacketFromLowerLayer:count 293
scalar SingleCell.ue[0].cellularNic.pdcp receivedPacketFromLowerLayer:sum(packetBytes) 17287
scalar SingleCell.ue[0].cellularNic.pdcp receivedPacketFromUpperLayer:count 293
scalar SingleCell.ue[0].cellularNic.pdcp receivedPacketFromUpperLayer:sum(packetBytes) 16408
scalar SingleCell.ue[0].cellularNic.rlc.tm rlcPacketLossUl:mean -nan
scalar SingleCell.ue[0].cellularNic.rlc.tm rlcPacketLossUl:sum 0
scalar SingleCell.ue[0].cellularNic.rlc.tm rlcPacketLossDl:mean -nan
scalar SingleCell.ue[0].cellularNic.rlc.tm rlcPacketLossDl:sum 0
scalar SingleCell.ue[0].cellularNic.rlc.tm sentPacketToLowerLayer:count 0
scalar SingleCell.ue[0].cellularNic.rlc.tm sentPacketToLowerLayer:sum(packetBytes) 0
scalar SingleCell.ue[0].cellularNic.rlc.tm sentPacketToUpperLayer:count 0
scalar SingleCell.ue[0].cellularNic.rlc.tm sentPacketToUpperLayer:sum(packetBytes) 0
scalar SingleCell.ue[0].cellularNic.rlc.tm receivedPacketFromLowerLayer:count 0
scalar SingleCell.ue[0].cellularNic.rlc.tm receivedPacketFromLowerLayer:sum(packetBytes) 0
scalar SingleCell.ue[0].cellularNic.rlc.tm receivedPacketFromUpperLayer:count 0
scalar SingleCell.ue[0].cellularNic.rlc.tm receivedPacketFromUpperLayer:sum(packetBytes) 0
scalar SingleCell.ue[0].cellularNic.rlc.um rlcCellThroughputUl:simu5g_rateavg -nan
scalar SingleCell.ue[0].cellularNic.rlc.um rlcCellThroughputDl:simu5g_rateavg -nan
scalar SingleCell.ue[0].cellularNic.rlc.um rlcPduThroughputUl:simu5g_rateavg 0
scalar SingleCell.ue[0].cellularNic.rlc.um rlcPduThroughputDl:simu5g_rateavg 0
scalar SingleCell.ue[0].cellularNic.rlc.um rlcPduDelayUl:mean 0.0040000000000000027
scalar SingleCell.ue[0].cellularNic.rlc.um rlcPduDelayDl:mean 0.0040000000000000027
scalar SingleCell.ue[0].cellularNic.rlc.um rlcThroughputUl:simu5g_rateavg 1907.9796716499304
scalar SingleCell.ue[0].cellularNic.rlc.um rlcThroughputDl:simu5g_rateavg 1989.3188094787804
scalar SingleCell.ue[0].cellularNic.rlc.um rlcDelayUl:mean 0.0089999999999999386
scalar SingleCell.ue[0].cellularNic.rlc.um rlcDelayDl:mean 0.0044893077349829179
scalar SingleCell.ue[0].cellularNic.rlc.um sentPacketToLowerLayer:count 293
scalar SingleCell.ue[0].cellularNic.rlc.um sentPacketToLowerLayer:sum(packetBytes) 17287
scalar SingleCell.ue[0].cellularNic.rlc.um sentPacketToUpperLayer:count 293
scalar SingleCell.ue[0].cellularNic.rlc.um sentPacketToUpperLayer:sum(packetBytes) 17287
scalar SingleCell.ue[0].cellularNic.rlc.um receivedPacketFromLowerLayer:count 293
scalar SingleCell.ue[0].cellularNic.rlc.um receivedPacketFromLowerLayer:sum(packetBytes) 17873
scalar SingleCell.ue[0].cellularNic.rlc.um receivedPacketFromUpperLayer:count 293
scalar SingleCell.ue[0].cellularNic.rlc.um receivedPacketFromUpperLayer:sum(packetBytes) 16701
scalar SingleCell.ue[0].cellularNic.rlc.am rlcPacketLossTotal:mean -nan
scalar SingleCell.ue[0].cellularNic.rlc.am rlcCellThroughputUl:simu5g_rateavg -nan
scalar SingleCell.ue[0].cellularNic.rlc.am rlcCellThroughputDl:simu5g_rateavg -nan
scalar SingleCell.ue[0].cellularNic.rlc.am rlcPduThroughputUl:simu5g_rateavg -nan
scalar SingleCell.ue[0].cellularNic.rlc.am rlcPduThroughputDl:simu5g_rateavg -nan
scalar SingleCell.ue[0].cellularNic.rlc.am rlcPduDelayUl:mean -nan
scalar SingleCell.ue[0].cellularNic.rlc.am rlcPduDelayDl:mean -nan
scalar SingleCell.ue[0].cellularNic.rlc.am rlcThroughputUl:simu5g_rateavg -nan
scalar SingleCell.ue[0].cellularNic.rlc.am rlcThroughputDl:simu5g_rateavg -nan
scalar SingleCell.ue[0].cellularNic.rlc.am rlcDelayUl:mean -nan
scalar SingleCell.ue[0].cellularNic.rlc.am rlcDelayDl:mean -nan
scalar SingleCell.ue[0].cellularNic.rlc.am rlcPduPacketLossUl:mean -nan
scalar SingleCell.ue[0].cellularNic.rlc.am rlcPduPacketLossDl:mean -nan
scalar SingleCell.ue[0].cellularNic.rlc.am rlcPacketLossUl:mean -nan
scalar SingleCell.ue[0].cellularNic.rlc.am rlcPacketLossDl:mean -nan
scalar SingleCell.ue[0].cellularNic.rlc.am rlcCellPacketLossUl:mean -nan
scalar SingleCell.ue[0].cellularNic.rlc.am rlcCellPacketLossDl:mean -nan
scalar SingleCell.ue[0].cellularNic.mac harqTxAttemptsUl:mean 1
scalar SingleCell.ue[0].cellularNic.mac harqTxAttemptsDl:mean 1
scalar SingleCell.ue[0].cellularNic.mac harqErrorRate_4th_Ul:mean -nan
scalar SingleCell.ue[0].cellularNic.mac harqErrorRate_4th_Dl:mean -nan
scalar SingleCell.ue[0].cellularNic.mac harqErrorRate_3rd_Ul:mean -nan
scalar SingleCell.ue[0].cellularNic.mac harqErrorRate_3rd_Dl:mean -nan
scalar SingleCell.ue[0].cellularNic.mac harqErrorRate_2nd_Ul:mean -nan
scalar SingleCell.ue[0].cellularNic.mac harqErrorRate_2nd_Dl:mean -nan
scalar SingleCell.ue[0].cellularNic.mac harqErrorRate_1st_Ul:mean 0
scalar SingleCell.ue[0].cellularNic.mac harqErrorRate_1st_Dl:mean 0
scalar SingleCell.ue[0].cellularNic.mac harqErrorRateUl:mean 0
scalar SingleCell.ue[0].cellularNic.mac harqErrorRateDl:mean 0
scalar SingleCell.ue[0].cellularNic.mac macCellPacketLossUl:mean -nan
scalar SingleCell.ue[0].cellularNic.mac macCellPacketLossDl:mean -nan
scalar SingleCell.ue[0].cellularNic.mac macPacketLossUl:mean 0
scalar SingleCell.ue[0].cellularNic.mac macPacketLossDl:mean 0
scalar SingleCell.ue[0].cellularNic.mac macThroughputUl:simu5g_rateavg 2041.8729819411519
scalar SingleCell.ue[0].cellularNic.mac macThroughputDl:simu5g_rateavg 2124.1878813078497
scalar SingleCell.ue[0].cellularNic.mac macDelayUl:mean 0.0040000000000000027
scalar SingleCell.ue[0].cellularNic.mac macDelayDl:mean 0.0040000000000000027
scalar SingleCell.ue[0].cellularNic.mac macCellThroughputUl:simu5g_rateavg -nan
scalar SingleCell.ue[0].cellularNic.mac macCellThroughputDl:simu5g_rateavg -nan
scalar SingleCell.ue[0].cellularNic.mac sentPacketToLowerLayer:count 879
scalar SingleCell.ue[0].cellularNic.mac sentPacketToLowerLayer:sum(packetBytes) 18459
scalar SingleCell.ue[0].cellularNic.mac sentPacketToUpperLayer:count 586
scalar SingleCell.ue[0].cellularNic.mac sentPacketToUpperLayer:sum(packetBytes) 18166
scalar SingleCell.ue[0].cellularNic.mac receivedPacketFromLowerLayer:count 1173
scalar SingleCell.ue[0].cellularNic.mac receivedPacketFromLowerLayer:sum(packetBytes) 19401
scalar SingleCell.ue[0].cellularNic.mac receivedPacketFromUpperLayer:count 586
scalar SingleCell.ue[0].cellularNic.mac receivedPacketFromUpperLayer:sum(packetBytes) 34574
scalar SingleCell.ue[0].cellularNic.mac macBufferOverFlowD2D:mean -nan
scalar SingleCell.ue[0].cellularNic.mac macBufferOverFlowUl:mean -nan
scalar SingleCell.ue[0].cellularNic.mac macBufferOverFlowDl:mean -nan
scalar SingleCell.ue[0].cellularNic.phy distance:mean 133.21587653779665
scalar SingleCell.ue[0].cellularNic.phy averageCqiUl:mean 14.112627986348123
scalar SingleCell.ue[0].cellularNic.phy averageCqiUl:count 293
scalar SingleCell.ue[0].cellularNic.phy averageCqiDl:mean 15
scalar SingleCell.ue[0].cellularNic.phy averageCqiDl:count 294
scalar SingleCell.ue[0].cellularNic.channelModel[0] measuredSinrUl:mean 42.128015681589844
scalar SingleCell.ue[0].cellularNic.channelModel[0] measuredSinrDl:mean 54.76393908446969
scalar SingleCell.ue[0].cellularNic.channelModel[0] rcvdSinrD2D:mean -nan
scalar SingleCell.ue[0].cellularNic.channelModel[0] rcvdSinrUl:mean 38.73698049201257
scalar SingleCell.ue[0].cellularNic.channelModel[0] rcvdSinrDl:mean 55.505824942404722
scalar SingleCell.ue[0].cellularNic packetDropInterfaceDown:count 0
scalar SingleCell.ue[0].cellularNic packetDropInterfaceDown:sum(packetBytes) 0
scalar SingleCell.ue[0].cellularNic packetDropNoCarrier:count 0
scalar SingleCell.ue[0].cellularNic packetDropNoCarrier:sum(packetBytes) 0
scalar SingleCell.ue[0].encap pauseSent:count 0
scalar SingleCell.ue[0].encap pauseSent:sum 0
scalar SingleCell.ue[0].encap decapPk:count 0
scalar SingleCell.ue[0].encap decapPk:sum(packetBytes) 0
scalar SingleCell.ue[0].encap encapPk:count 0
scalar SingleCell.ue[0].encap encapPk:sum(packetBytes) 0
scalar SingleCell.ue[0].ipv4.ip packetDropAddressResolutionFailed:count 0
scalar SingleCell.ue[0].ipv4.ip packetDropAddressResolutionFailed:sum(packetBytes) 0
scalar SingleCell.ue[0].ipv4.ip packetDropHopLimitReached:count 0
scalar SingleCell.ue[0].ipv4.ip packetDropHopLimitReached:sum(packetBytes) 0
scalar SingleCell.ue[0].ipv4.ip packetDropForwardingDisabled:count 0
scalar SingleCell.ue[0].ipv4.ip packetDropForwardingDisabled:sum(packetBytes) 0
scalar SingleCell.ue[0].ipv4.ip packetDropNoInterfaceFound:count 0
scalar SingleCell.ue[0].ipv4.ip packetDropNoInterfaceFound:sum(packetBytes) 0
scalar SingleCell.ue[0].ipv4.ip packetDropNoRouteFound:count 0
scalar SingleCell.ue[0].ipv4.ip packetDropNoRouteFound:sum(packetBytes) 0
scalar SingleCell.ue[0].ipv4.ip packetDropUndefined:count 0
scalar SingleCell.ue[0].ipv4.ip packetDropUndefined:sum(packetBytes) 0
scalar SingleCell.ue[0].ipv4.arp arpResolutionFailed:count 0
scalar SingleCell.ue[0].ipv4.arp arpResolutionCompleted:count 0
scalar SingleCell.ue[0].ipv4.arp arpResolutionInitiated:count 0
scalar SingleCell.ue[0].ipv4.arp arpReplySent:count 0
scalar SingleCell.ue[0].ipv4.arp arpReplySent:sum(packetBytes) 0
scalar SingleCell.ue[0].ipv4.arp arpRequestSent:count 0
scalar SingleCell.ue[0].ipv4.arp arpRequestSent:sum(packetBytes) 0
scalar SingleCell.ue[0].udp packetReceived:count 293
scalar SingleCell.ue[0].udp packetReceived:sum(packetBytes) 11134
scalar SingleCell.ue[0].udp packetSent:count 0
scalar SingleCell.ue[0].udp packetSent:sum(packetBytes) 0
scalar SingleCell.ue[0].udp passedUpPk:count 0
scalar SingleCell.ue[0].udp droppedPkWrongPort:count 293
scalar SingleCell.ue[0].udp droppedPkBadChecksum:count 0
scalar SingleCell.ue[1].lo[0].lo rcvdPkFromHl:count 0
scalar SingleCell.ue[1].lo[0].lo rcvdPkFromHl:sum(packetBytes) 0
scalar SingleCell.ue[1].lo[0].lo passedUpPk:count 0
scalar SingleCell.ue[1].lo[0].lo passedUpPk:sum(packetBytes) 0
scalar SingleCell.ue[1].lo[0] packetDropInterfaceDown:count 0
scalar SingleCell.ue[1].lo[0] packetDropInterfaceDown:sum(packetBytes) 0
scalar SingleCell.ue[1].lo[0] packetDropNoCarrier:count 0
scalar SingleCell.ue[1].lo[0] packetDropNoCarrier:sum(packetBytes) 0
scalar SingleCell.ue[1].cellularNic.pdcp sentPacketToLowerLayer:count 327
scalar SingleCell.ue[1].cellularNic.pdcp sentPacketToLowerLayer:sum(packetBytes) 18639
scalar SingleCell.ue[1].cellularNic.pdcp sentPacketToUpperLayer:count 327
scalar SingleCell.ue[1].cellularNic.pdcp sentPacketToUpperLayer:sum(packetBytes) 18966
scalar SingleCell.ue[1].cellularNic.pdcp receivedPacketFromLowerLayer:count 327
scalar SingleCell.ue[1].cellularNic.pdcp receivedPacketFromLowerLayer:sum(packetBytes) 19293
scalar SingleCell.ue[1].cellularNic.pdcp receivedPacketFromUpperLayer:count 327
scalar SingleCell.ue[1].cellularNic.pdcp receivedPacketFromUpperLayer:sum(packetBytes) 18312
scalar SingleCell.ue[1].cellularNic.rlc.tm rlcPacketLossUl:mean -nan
scalar SingleCell.ue[1].cellularNic.rlc.tm rlcPacketLossUl:sum 0
scalar SingleCell.ue[1].cellularNic.rlc.tm rlcPacketLossDl:mean -nan
scalar SingleCell.ue[1].cellularNic.rlc.tm rlcPacketLossDl:sum 0
scalar SingleCell.ue[1].cellularNic.rlc.tm sentPacketToLowerLayer:count 0
scalar SingleCell.ue[1].cellularNic.rlc.tm sentPacketToLowerLayer:sum(packetBytes) 0
scalar SingleCell.ue[1].cellularNic.rlc.tm sentPacketToUpperLayer:count 0
scalar SingleCell.ue[1].cellularNic.rlc.tm sentPacketToUpperLayer:sum(packetBytes) 0
scalar SingleCell.ue[1].cellularNic.rlc.tm receivedPacketFromLowerLayer:count 0
scalar SingleCell.ue[1].cellularNic.rlc.tm receivedPacketFromLowerLayer:sum(packetBytes) 0
scalar SingleCell.ue[1].cellularNic.rlc.tm receivedPacketFromUpperLayer:count 0
scalar SingleCell.ue[1].cellularNic.rlc.tm receivedPacketFromUpperLayer:sum(packetBytes) 0
scalar SingleCell.ue[1].cellularNic.rlc.um rlcCellThroughputUl:simu5g_rateavg -nan
scalar SingleCell.ue[1].cellularNic.rlc.um rlcCellThroughputDl:simu5g_rateavg -nan
scalar SingleCell.ue[1].cellularNic.rlc.um rlcPduThroughputUl:simu5g_rateavg 0
scalar SingleCell.ue[1].cellularNic.rlc.um rlcPduThroughputDl:simu5g_rateavg 0
scalar SingleCell.ue[1].cellularNic.rlc.um rlcPduDelayUl:mean 0.0041226993865030705
scalar SingleCell.ue[1].cellularNic.rlc.um rlcPduDelayDl:mean 0.0040183486238532136
scalar SingleCell.ue[1].cellularNic.rlc.um rlcThroughputUl:simu5g_rateavg 2372.5239775335854
scalar SingleCell.ue[1].cellularNic.rlc.um rlcThroughputDl:simu5g_rateavg 2472.34684287141
scalar SingleCell.ue[1].cellularNic.rlc.um rlcDelayUl:mean 0.0091993865030674197
scalar SingleCell.ue[1].cellularNic.rlc.um rlcDelayDl:mean 0.0046845834683577831
scalar SingleCell.ue[1].cellularNic.rlc.um sentPacketToLowerLayer:count 327
scalar SingleCell.ue[1].cellularNic.rlc.um sentPacketToLowerLayer:sum(packetBytes) 19293
scalar SingleCell.ue[1].cellularNic.rlc.um sentPacketToUpperLayer:count 327
scalar SingleCell.ue[1].cellularNic.rlc.um sentPacketToUpperLayer:sum(packetBytes) 19293
scalar SingleCell.ue[1].cellularNic.rlc.um receivedPacketFromLowerLayer:count 327
scalar SingleCell.ue[1].cellularNic.rlc.um receivedPacketFromLowerLayer:sum(packetBytes) 19947
scalar SingleCell.ue[1].cellularNic.rlc.um receivedPacketFromUpperLayer:count 327
scalar SingleCell.ue[1].cellularNic.rlc.um receivedPacketFromUpperLayer:sum(packetBytes) 18639
scalar SingleCell.ue[1].cellularNic.rlc.am rlcPacketLossTotal:mean -nan
scalar SingleCell.ue[1].cellularNic.rlc.am rlcCellThroughputUl:simu5g_rateavg -nan
scalar SingleCell.ue[1].cellularNic.rlc.am rlcCellThroughputDl:simu5g_rateavg -nan
scalar SingleCell.ue[1].cellularNic.rlc.am rlcPduThroughputUl:simu5g_rateavg -nan
scalar SingleCell.ue[1].cellularNic.rlc.am rlcPduThroughputDl:simu5g_rateavg -nan
scalar SingleCell.ue[1].cellularNic.rlc.am rlcPduDelayUl:mean -nan
scalar SingleCell.ue[1].cellularNic.rlc.am rlcPduDelayDl:mean -nan
scalar SingleCell.ue[1].cellularNic.rlc.am rlcThroughputUl:simu5g_rateavg -nan
scalar SingleCell.ue[1].cellularNic.rlc.am rlcThroughputDl:simu5g_rateavg -nan
scalar SingleCell.ue[1].cellularNic.rlc.am rlcDelayUl:mean -nan
scalar SingleCell.ue[1].cellularNic.rlc.am rlcDelayDl:mean -nan
scalar SingleCell.ue[1].cellularNic.rlc.am rlcPduPacketLossUl:mean -nan
scalar SingleCell.ue[1].cellularNic.rlc.am rlcPduPacketLossDl:mean -nan
scalar SingleCell.ue[1].cellularNic.rlc.am rlcPacketLossUl:mean -nan
scalar SingleCell.ue[1].cellularNic.rlc.am rlcPacketLossDl:mean -nan
scalar SingleCell.ue[1].cellularNic.rlc.am rlcCellPacketLossUl:mean -nan
scalar SingleCell.ue[1].cellularNic.rlc.am rlcCellPacketLossDl:mean -nan
scalar SingleCell.ue[1].cellularNic.mac harqTxAttemptsUl:mean 1.0030674846625767
scalar SingleCell.ue[1].cellularNic.mac harqTxAttemptsDl:mean 1.0030581039755351
scalar SingleCell.ue[1].cellularNic.mac harqErrorRate_4th_Ul:mean -nan
scalar SingleCell.ue[1].cellularNic.mac harqErrorRate_4th_Dl:mean -nan
scalar SingleCell.ue[1].cellularNic.mac harqErrorRate_3rd_Ul:mean -nan
scalar SingleCell.ue[1].cellularNic.mac harqErrorRate_3rd_Dl:mean -nan
scalar SingleCell.ue[1].cellularNic.mac harqErrorRate_2nd_Ul:mean 0
scalar SingleCell.ue[1].cellularNic.mac harqErrorRate_2nd_Dl:mean 0
scalar SingleCell.ue[1].cellularNic.mac harqErrorRate_1st_Ul:mean 0.0030674846625766872
scalar SingleCell.ue[1].cellularNic.mac harqErrorRate_1st_Dl:mean 0.0030581039755351682
scalar SingleCell.ue[1].cellularNic.mac harqErrorRateUl:mean 0.0030581039755351682
scalar SingleCell.ue[1].cellularNic.mac harqErrorRateDl:mean 0.0030487804878048782
scalar SingleCell.ue[1].cellularNic.mac macCellPacketLossUl:mean -nan
scalar SingleCell.ue[1].cellularNic.mac macCellPacketLossDl:mean -nan
scalar SingleCell.ue[1].cellularNic.mac macPacketLossUl:mean 0
scalar SingleCell.ue[1].cellularNic.mac macPacketLossDl:mean 0
scalar SingleCell.ue[1].cellularNic.mac macThroughputUl:simu5g_rateavg 2539.0651349561649
scalar SingleCell.ue[1].cellularNic.mac macThroughputDl:simu5g_rateavg 2639.9635779813361
scalar SingleCell.ue[1].cellularNic.mac macDelayUl:mean 0.0041226993865030705
scalar SingleCell.ue[1].cellularNic.mac macDelayDl:mean 0.0040183486238532136
scalar SingleCell.ue[1].cellularNic.mac macCellThroughputUl:simu5g_rateavg -nan
scalar SingleCell.ue[1].cellularNic.mac macCellThroughputDl:simu5g_rateavg -nan
scalar SingleCell.ue[1].cellularNic.mac sentPacketToLowerLayer:count 984
scalar SingleCell.ue[1].cellularNic.mac sentPacketToLowerLayer:sum(packetBytes) 20664
scalar SingleCell.ue[1].cellularNic.mac sentPacketToUpperLayer:count 654
scalar SingleCell.ue[1].cellularNic.mac sentPacketToUpperLayer:sum(packetBytes) 20274
scalar SingleCell.ue[1].cellularNic.mac receivedPacketFromLowerLayer:count 1311
scalar SingleCell.ue[1].cellularNic.mac receivedPacketFromLowerLayer:sum(packetBytes) 21647
scalar SingleCell.ue[1].cellularNic.mac receivedPacketFromUpperLayer:count 654
scalar SingleCell.ue[1].cellularNic.mac receivedPacketFromUpperLayer:sum(packetBytes) 38586
scalar SingleCell.ue[1].cellularNic.mac macBufferOverFlowD2D:mean -nan
scalar SingleCell.ue[1].cellularNic.mac macBufferOverFlowUl:mean -nan
scalar SingleCell.ue[1].cellularNic.mac macBufferOverFlowDl:mean -nan
scalar SingleCell.ue[1].cellularNic.phy distance:mean 185.58944150636097
scalar SingleCell.ue[1].cellularNic.phy averageCqiUl:mean 13.548780487804878
scalar SingleCell.ue[1].cellularNic.phy averageCqiUl:count 328
scalar SingleCell.ue[1].cellularNic.phy averageCqiDl:mean 14.317073170731707
scalar SingleCell.ue[1].cellularNic.phy averageCqiDl:count 328
scalar SingleCell.ue[1].cellularNic.channelModel[0] measuredSinrUl:mean 31.65707886811348
scalar SingleCell.ue[1].cellularNic.channelModel[0] measuredSinrDl:mean 43.962257845485532
scalar SingleCell.ue[1].cellularNic.channelModel[0] rcvdSinrD2D:mean -nan
scalar SingleCell.ue[1].cellularNic.channelModel[0] rcvdSinrUl:mean 29.030692163453669
scalar SingleCell.ue[1].cellularNic.channelModel[0] rcvdSinrDl:mean 46.073244046748918
scalar SingleCell.ue[1].cellularNic packetDropInterfaceDown:count 0
scalar SingleCell.ue[1].cellularNic packetDropInterfaceDown:sum(packetBytes) 0
scalar SingleCell.ue[1].cellularNic packetDropNoCarrier:count 0
scalar SingleCell.ue[1].cellularNic packetDropNoCarrier:sum(packetBytes) 0
scalar SingleCell.ue[1].encap pauseSent:count 0
scalar SingleCell.ue[1].encap pauseSent:sum 0
scalar SingleCell.ue[1].encap decapPk:count 0
scalar SingleCell.ue[1].encap decapPk:sum(packetBytes) 0
scalar SingleCell.ue[1].encap encapPk:count 0
scalar SingleCell.ue[1].encap encapPk:sum(packetBytes) 0
scalar SingleCell.ue[1].ipv4.ip packetDropAddressResolutionFailed:count 0
scalar SingleCell.ue[1].ipv4.ip packetDropAddressResolutionFailed:sum(packetBytes) 0
scalar SingleCell.ue[1].ipv4.ip packetDropHopLimitReached:count 0
scalar SingleCell.ue[1].ipv4.ip packetDropHopLimitReached:sum(packetBytes) 0
scalar SingleCell.ue[1].ipv4.ip packetDropForwardingDisabled:count 0
scalar SingleCell.ue[1].ipv4.ip packetDropForwardingDisabled:sum(packetBytes) 0
scalar SingleCell.ue[1].ipv4.ip packetDropNoInterfaceFound:count 0
scalar SingleCell.ue[1].ipv4.ip packetDropNoInterfaceFound:sum(packetBytes) 0
scalar SingleCell.ue[1].ipv4.ip packetDropNoRouteFound:count 0
scalar SingleCell.ue[1].ipv4.ip packetDropNoRouteFound:sum(packetBytes) 0
scalar SingleCell.ue[1].ipv4.ip packetDropUndefined:count 0
scalar SingleCell.ue[1].ipv4.ip packetDropUndefined:sum(packetBytes) 0
scalar SingleCell.ue[1].ipv4.arp arpResolutionFailed:count 0
scalar SingleCell.ue[1].ipv4.arp arpResolutionCompleted:count 0
scalar SingleCell.ue[1].ipv4.arp arpResolutionInitiated:count 0
scalar SingleCell.ue[1].ipv4.arp arpReplySent:count 0
scalar SingleCell.ue[1].ipv4.arp arpReplySent:sum(packetBytes) 0
scalar SingleCell.ue[1].ipv4.arp arpRequestSent:count 0
scalar SingleCell.ue[1].ipv4.arp arpRequestSent:sum(packetBytes) 0
scalar SingleCell.ue[1].udp packetReceived:count 327
scalar SingleCell.ue[1].udp packetReceived:sum(packetBytes) 12426
scalar SingleCell.ue[1].udp packetSent:count 0
scalar SingleCell.ue[1].udp packetSent:sum(packetBytes) 0
scalar SingleCell.ue[1].udp passedUpPk:count 0
scalar SingleCell.ue[1].udp droppedPkWrongPort:count 327
scalar SingleCell.ue[1].udp droppedPkBadChecksum:count 0
scalar SingleCell.ue[2].lo[0].lo rcvdPkFromHl:count 0
scalar SingleCell.ue[2].lo[0].lo rcvdPkFromHl:sum(packetBytes) 0
scalar SingleCell.ue[2].lo[0].lo passedUpPk:count 0
scalar SingleCell.ue[2].lo[0].lo passedUpPk:sum(packetBytes) 0
scalar SingleCell.ue[2].lo[0] packetDropInterfaceDown:count 0
scalar SingleCell.ue[2].lo[0] packetDropInterfaceDown:sum(packetBytes) 0
scalar SingleCell.ue[2].lo[0] packetDropNoCarrier:count 0
scalar SingleCell.ue[2].lo[0] packetDropNoCarrier:sum(packetBytes) 0
scalar SingleCell.ue[2].cellularNic.pdcp sentPacketToLowerLayer:count 412
scalar SingleCell.ue[2].cellularNic.pdcp sentPacketToLowerLayer:sum(packetBytes) 23484
scalar SingleCell.ue[2].cellularNic.pdcp sentPacketToUpperLayer:count 412
scalar SingleCell.ue[2].cellularNic.pdcp sentPacketToUpperLayer:sum(packetBytes) 23896
scalar SingleCell.ue[2].cellularNic.pdcp receivedPacketFromLowerLayer:count 412
scalar SingleCell.ue[2].cellularNic.pdcp receivedPacketFromLowerLayer:sum(packetBytes) 24308
scalar SingleCell.ue[2].cellularNic.pdcp receivedPacketFromUpperLayer:count 412
scalar SingleCell.ue[2].cellularNic.pdcp receivedPacketFromUpperLayer:sum(packetBytes) 23072
scalar SingleCell.ue[2].cellularNic.rlc.tm rlcPacketLossUl:mean -nan
scalar SingleCell.ue[2].cellularNic.rlc.tm rlcPacketLossUl:sum 0
scalar SingleCell.ue[2].cellularNic.rlc.tm rlcPacketLossDl:mean -nan
scalar SingleCell.ue[2].cellularNic.rlc.tm rlcPacketLossDl:sum 0
scalar SingleCell.ue[2].cellularNic.rlc.tm sentPacketToLowerLayer:count 0
scalar SingleCell.ue[2].cellularNic.rlc.tm sentPacketToLowerLayer:sum(packetBytes) 0
scalar SingleCell.ue[2].cellularNic.rlc.tm sentPacketToUpperLayer:count 0
scalar SingleCell.ue[2].cellularNic.rlc.tm sentPacketToUpperLayer:sum(packetBytes) 0
scalar SingleCell.ue[2].cellularNic.rlc.tm receivedPacketFromLowerLayer:count 0
scalar SingleCell.ue[2].cellularNic.rlc.tm receivedPacketFromLowerLayer:sum(packetBytes) 0
scalar SingleCell.ue[2].cellularNic.rlc.tm receivedPacketFromUpperLayer:count 0
scalar SingleCell.ue[2].cellularNic.rlc.tm receivedPacketFromUpperLayer:sum(packetBytes) 0
scalar SingleCell.ue[2].cellularNic.rlc.um rlcCellThroughputUl:simu5g_rateavg -nan
scalar SingleCell.ue[2].cellularNic.rlc.um rlcCellThroughputDl:simu5g_rateavg -nan
scalar SingleCell.ue[2].cellularNic.rlc.um rlcPduThroughputUl:simu5g_rateavg 0
scalar SingleCell.ue[2].cellularNic.rlc.um rlcPduThroughputDl:simu5g_rateavg 0
scalar SingleCell.ue[2].cellularNic.rlc.um rlcPduDelayUl:mean 0.0060844036697247743
scalar SingleCell.ue[2].cellularNic.rlc.um rlcPduDelayDl:mean 0.0041456310679611683
scalar SingleCell.ue[2].cellularNic.rlc.um rlcThroughputUl:simu5g_rateavg 2516.6088358407956
scalar SingleCell.ue[2].cellularNic.rlc.um rlcThroughputDl:simu5g_rateavg 2658.9562261026899
scalar SingleCell.ue[2].cellularNic.rlc.um rlcDelayUl:mean 0.023934306569343193
scalar SingleCell.ue[2].cellularNic.rlc.um rlcDelayDl:mean 0.0044709417840752674
scalar SingleCell.ue[2].cellularNic.rlc.um sentPacketToLowerLayer:count 546
scalar SingleCell.ue[2].cellularNic.rlc.um sentPacketToLowerLayer:sum(packetBytes) 24576
scalar SingleCell.ue[2].cellularNic.rlc.um sentPacketToUpperLayer:count 412
scalar SingleCell.ue[2].cellularNic.rlc.um sentPacketToUpperLayer:sum(packetBytes) 24308
scalar SingleCell.ue[2].cellularNic.rlc.um receivedPacketFromLowerLayer:count 412
scalar SingleCell.ue[2].cellularNic.rlc.um receivedPacketFromLowerLayer:sum(packetBytes) 25132
scalar SingleCell.ue[2].cellularNic.rlc.um receivedPacketFromUpperLayer:count 412
scalar SingleCell.ue[2].cellularNic.rlc.um receivedPacketFromUpperLayer:sum(packetBytes) 23484
scalar SingleCell.ue[2].cellularNic.rlc.am rlcPacketLossTotal:mean -nan
scalar SingleCell.ue[2].cellularNic.rlc.am rlcCellThroughputUl:simu5g_rateavg -nan
scalar SingleCell.ue[2].cellularNic.rlc.am rlcCellThroughputDl:simu5g_rateavg -nan
scalar SingleCell.ue[2].cellularNic.rlc.am rlcPduThroughputUl:simu5g_rateavg -nan
scalar SingleCell.ue[2].cellularNic.rlc.am rlcPduThroughputDl:simu5g_rateavg -nan
scalar SingleCell.ue[2].cellularNic.rlc.am rlcPduDelayUl:mean -nan
scalar SingleCell.ue[2].cellularNic.rlc.am rlcPduDelayDl:mean -nan
scalar SingleCell.ue[2].cellularNic.rlc.am rlcThroughputUl:simu5g_rateavg -nan
scalar SingleCell.ue[2].cellularNic.rlc.am rlcThroughputDl:simu5g_rateavg -nan
scalar SingleCell.ue[2].cellularNic.rlc.am rlcDelayUl:mean -nan
scalar SingleCell.ue[2].cellularNic.rlc.am rlcDelayDl:mean -nan
scalar SingleCell.ue[2].cellularNic.rlc.am rlcPduPacketLossUl:mean -nan
scalar SingleCell.ue[2].cellularNic.rlc.am rlcPduPacketLossDl:mean -nan
scalar SingleCell.ue[2].cellularNic.rlc.am rlcPacketLossUl:mean -nan
scalar SingleCell.ue[2].cellularNic.rlc.am rlcPacketLossDl:mean -nan
scalar SingleCell.ue[2].cellularNic.rlc.am rlcCellPacketLossUl:mean -nan
scalar SingleCell.ue[2].cellularNic.rlc.am rlcCellPacketLossDl:mean -nan
scalar SingleCell.ue[2].cellularNic.mac harqTxAttemptsUl:mean 1.0256410256410255
scalar SingleCell.ue[2].cellularNic.mac harqTxAttemptsDl:mean 1.0242718446601942
scalar SingleCell.ue[2].cellularNic.mac harqErrorRate_4th_Ul:mean -nan
scalar SingleCell.ue[2].cellularNic.mac harqErrorRate_4th_Dl:mean -nan
scalar SingleCell.ue[2].cellularNic.mac harqErrorRate_3rd_Ul:mean -nan
scalar SingleCell.ue[2].cellularNic.mac harqErrorRate_3rd_Dl:mean -nan
scalar SingleCell.ue[2].cellularNic.mac harqErrorRate_2nd_Ul:mean 0
scalar SingleCell.ue[2].cellularNic.mac harqErrorRate_2nd_Dl:mean 0
scalar SingleCell.ue[2].cellularNic.mac harqErrorRate_1st_Ul:mean 0.02564102564102564
scalar SingleCell.ue[2].cellularNic.mac harqErrorRate_1st_Dl:mean 0.024271844660194174
scalar SingleCell.ue[2].cellularNic.mac harqErrorRateUl:mean 0.025000000000000001
scalar SingleCell.ue[2].cellularNic.mac harqErrorRateDl:mean 0.023696682464454975
scalar SingleCell.ue[2].cellularNic.mac macCellPacketLossUl:mean -nan
scalar SingleCell.ue[2].cellularNic.mac macCellPacketLossDl:mean -nan
scalar SingleCell.ue[2].cellularNic.mac macPacketLossUl:mean 0
scalar SingleCell.ue[2].cellularNic.mac macPacketLossDl:mean 0
scalar SingleCell.ue[2].cellularNic.mac macThroughputUl:simu5g_rateavg 2828.1600413613078
scalar SingleCell.ue[2].cellularNic.mac macThroughputDl:simu5g_rateavg 2839.2244448215201
scalar SingleCell.ue[2].cellularNic.mac macDelayUl:mean 0.016161172161172164
scalar SingleCell.ue[2].cellularNic.mac macDelayDl:mean 0.0041456310679611683
scalar SingleCell.ue[2].cellularNic.mac macCellThroughputUl:simu5g_rateavg -nan
scalar SingleCell.ue[2].cellularNic.mac macCellThroughputDl:simu5g_rateavg -nan
scalar SingleCell.ue[2].cellularNic.mac sentPacketToLowerLayer:count 1401
scalar SingleCell.ue[2].cellularNic.mac sentPacketToLowerLayer:sum(packetBytes) 27177
scalar SingleCell.ue[2].cellularNic.mac sentPacketToUpperLayer:count 958
scalar SingleCell.ue[2].cellularNic.mac sentPacketToUpperLayer:sum(packetBytes) 25678
scalar SingleCell.ue[2].cellularNic.mac receivedPacketFromLowerLayer:count 1962
scalar SingleCell.ue[2].cellularNic.mac receivedPacketFromLowerLayer:sum(packetBytes) 28126
scalar SingleCell.ue[2].cellularNic.mac receivedPacketFromUpperLayer:count 958
scalar SingleCell.ue[2].cellularNic.mac receivedPacketFromUpperLayer:sum(packetBytes) 48884
scalar SingleCell.ue[2].cellularNic.mac macBufferOverFlowD2D:mean -nan
scalar SingleCell.ue[2].cellularNic.mac macBufferOverFlowUl:mean -nan
scalar SingleCell.ue[2].cellularNic.mac macBufferOverFlowDl:mean -nan
scalar SingleCell.ue[2].cellularNic.phy distance:mean 256.48415189632129
scalar SingleCell.ue[2].cellularNic.phy averageCqiUl:mean 11.417857142857143
scalar SingleCell.ue[2].cellularNic.phy averageCqiUl:count 560
scalar SingleCell.ue[2].cellularNic.phy averageCqiDl:mean 14.587677725118484
scalar SingleCell.ue[2].cellularNic.phy averageCqiDl:count 422
scalar SingleCell.ue[2].cellularNic.channelModel[0] measuredSinrUl:mean 24.791767521832881
scalar SingleCell.ue[2].cellularNic.channelModel[0] measuredSinrDl:mean 34.2587274124526
scalar SingleCell.ue[2].cellularNic.channelModel[0] rcvdSinrD2D:mean -nan
scalar SingleCell.ue[2].cellularNic.channelModel[0] rcvdSinrUl:mean 24.668408508110755
scalar SingleCell.ue[2].cellularNic.channelModel[0] rcvdSinrDl:mean 33.181018327661448
scalar SingleCell.ue[2].cellularNic packetDropInterfaceDown:count 0
scalar SingleCell.ue[2].cellularNic packetDropInterfaceDown:sum(packetBytes) 0
scalar SingleCell.ue[2].cellularNic packetDropNoCarrier:count 0
scalar SingleCell.ue[2].cellularNic packetDropNoCarrier:sum(packetBytes) 0
scalar SingleCell.ue[2].encap pauseSent:count 0
scalar SingleCell.ue[2].encap pauseSent:sum 0
scalar SingleCell.ue[2].encap decapPk:count 0
scalar SingleCell.ue[2].encap decapPk:sum(packetBytes) 0
scalar SingleCell.ue[2].encap encapPk:count 0
scalar SingleCell.ue[2].encap encapPk:sum(packetBytes) 0
scalar SingleCell.ue[2].ipv4.ip packetDropAddressResolutionFailed:count 0
scalar SingleCell.ue[2].ipv4.ip packetDropAddressResolutionFailed:sum(packetBytes) 0
scalar SingleCell.ue[2].ipv4.ip packetDropHopLimitReached:count 0
scalar SingleCell.ue[2].ipv4.ip packetDropHopLimitReached:sum(packetBytes) 0
scalar SingleCell.ue[2].ipv4.ip packetDropForwardingDisabled:count 0
scalar SingleCell.ue[2].ipv4.ip packetDropForwardingDisabled:sum(packetBytes) 0
scalar SingleCell.ue[2].ipv4.ip packetDropNoInterfaceFound:count 0
scalar SingleCell.ue[2].ipv4.ip packetDropNoInterfaceFound:sum(packetBytes) 0
scalar SingleCell.ue[2].ipv4.ip packetDropNoRouteFound:count 0
scalar SingleCell.ue[2].ipv4.ip packetDropNoRouteFound:sum(packetBytes) 0
scalar SingleCell.ue[2].ipv4.ip packetDropUndefined:count 0
scalar SingleCell.ue[2].ipv4.ip packetDropUndefined:sum(packetBytes) 0
scalar SingleCell.ue[2].ipv4.arp arpResolutionFailed:count 0
scalar SingleCell.ue[2].ipv4.arp arpResolutionCompleted:count 0
scalar SingleCell.ue[2].ipv4.arp arpResolutionInitiated:count 0
scalar SingleCell.ue[2].ipv4.arp arpReplySent:count 0
scalar SingleCell.ue[2].ipv4.arp arpReplySent:sum(packetBytes) 0
scalar SingleCell.ue[2].ipv4.arp arpRequestSent:count 0
scalar SingleCell.ue[2].ipv4.arp arpRequestSent:sum(packetBytes) 0
scalar SingleCell.ue[2].udp packetReceived:count 412
scalar SingleCell.ue[2].udp packetReceived:sum(packetBytes) 15656
scalar SingleCell.ue[2].udp packetSent:count 0
scalar SingleCell.ue[2].udp packetSent:sum(packetBytes) 0
scalar SingleCell.ue[2].udp passedUpPk:count 0
scalar SingleCell.ue[2].udp droppedPkWrongPort:count 412
scalar SingleCell.ue[2].udp droppedPkBadChecksum:count 0
scalar SingleCell.ue[3].lo[0].lo rcvdPkFromHl:count 0
scalar SingleCell.ue[3].lo[0].lo rcvdPkFromHl:sum(packetBytes) 0
scalar SingleCell.ue[3].lo[0].lo passedUpPk:count 0
scalar SingleCell.ue[3].lo[0].lo passedUpPk:sum(packetBytes) 0
scalar SingleCell.ue[3].lo[0] packetDropInterfaceDown:count 0
scalar SingleCell.ue[3].lo[0] packetDropInterfaceDown:sum(packetBytes) 0
scalar SingleCell.ue[3].lo[0] packetDropNoCarrier:count 0
scalar SingleCell.ue[3].lo[0] packetDropNoCarrier:sum(packetBytes) 0
scalar SingleCell.ue[3].cellularNic.pdcp sentPacketToLowerLayer:count 406
scalar SingleCell.ue[3].cellularNic.pdcp sentPacketToLowerLayer:sum(packetBytes) 23142
scalar SingleCell.ue[3].cellularNic.pdcp sentPacketToUpperLayer:count 406
scalar SingleCell.ue[3].cellularNic.pdcp sentPacketToUpperLayer:sum(packetBytes) 23548
scalar SingleCell.ue[3].cellularNic.pdcp receivedPacketFromLowerLayer:count 406
scalar SingleCell.ue[3].cellularNic.pdcp receivedPacketFromLowerLayer:sum(packetBytes) 23954
scalar SingleCell.ue[3].cellularNic.pdcp receivedPacketFromUpperLayer:count 406
scalar SingleCell.ue[3].cellularNic.pdcp receivedPacketFromUpperLayer:sum(packetBytes) 22736
scalar SingleCell.ue[3].cellularNic.rlc.tm rlcPacketLossUl:mean -nan
scalar SingleCell.ue[3].cellularNic.rlc.tm rlcPacketLossUl:sum 0
scalar SingleCell.ue[3].cellularNic.rlc.tm rlcPacketLossDl:mean -nan
scalar SingleCell.ue[3].cellularNic.rlc.tm rlcPacketLossDl:sum 0
scalar SingleCell.ue[3].cellularNic.rlc.tm sentPacketToLowerLayer:count 0
scalar SingleCell.ue[3].cellularNic.rlc.tm sentPacketToLowerLayer:sum(packetBytes) 0
scalar SingleCell.ue[3].cellularNic.rlc.tm sentPacketToUpperLayer:count 0
scalar SingleCell.ue[3].cellularNic.rlc.tm sentPacketToUpperLayer:sum(packetBytes) 0
scalar SingleCell.ue[3].cellularNic.rlc.tm receivedPacketFromLowerLayer:count 0
scalar SingleCell.ue[3].cellularNic.rlc.tm receivedPacketFromLowerLayer:sum(packetBytes) 0
scalar SingleCell.ue[3].cellularNic.rlc.tm receivedPacketFromUpperLayer:count 0
scalar SingleCell.ue[3].cellularNic.rlc.tm receivedPacketFromUpperLayer:sum(packetBytes) 0
scalar SingleCell.ue[3].cellularNic.rlc.um rlcCellThroughputUl:simu5g_rateavg -nan
scalar SingleCell.ue[3].cellularNic.rlc.um rlcCellThroughputDl:simu5g_rateavg -nan
scalar SingleCell.ue[3].cellularNic.rlc.um rlcPduThroughputUl:simu5g_rateavg 0
scalar SingleCell.ue[3].cellularNic.rlc.um rlcPduThroughputDl:simu5g_rateavg 0
scalar SingleCell.ue[3].cellularNic.rlc.um rlcPduDelayUl:mean 0.0045878136200716881
scalar SingleCell.ue[3].cellularNic.rlc.um rlcPduDelayDl:mean 0.0042068965517241411
scalar SingleCell.ue[3].cellularNic.rlc.um rlcThroughputUl:simu5g_rateavg 2377.9952730959917
scalar SingleCell.ue[3].cellularNic.rlc.um rlcThroughputDl:simu5g_rateavg 2515.4435625334386
scalar SingleCell.ue[3].cellularNic.rlc.um rlcDelayUl:mean 0.01398024691358038
scalar SingleCell.ue[3].cellularNic.rlc.um rlcDelayDl:mean 0.0046321894912118031
scalar SingleCell.ue[3].cellularNic.rlc.um sentPacketToLowerLayer:count 559
scalar SingleCell.ue[3].cellularNic.rlc.um sentPacketToLowerLayer:sum(packetBytes) 24260
scalar SingleCell.ue[3].cellularNic.rlc.um sentPacketToUpperLayer:count 406
scalar SingleCell.ue[3].cellularNic.rlc.um sentPacketToUpperLayer:sum(packetBytes) 23954
scalar SingleCell.ue[3].cellularNic.rlc.um receivedPacketFromLowerLayer:count 406
scalar SingleCell.ue[3].cellularNic.rlc.um receivedPacketFromLowerLayer:sum(packetBytes) 24766
scalar SingleCell.ue[3].cellularNic.rlc.um receivedPacketFromUpperLayer:count 406
scalar SingleCell.ue[3].cellularNic.rlc.um receivedPacketFromUpperLayer:sum(packetBytes) 23142
scalar SingleCell.ue[3].cellularNic.rlc.am rlcPacketLossTotal:mean -nan
scalar SingleCell.ue[3].cellularNic.rlc.am rlcCellThroughputUl:simu5g_rateavg -nan
scalar SingleCell.ue[3].cellularNic.rlc.am rlcCellThroughputDl:simu5g_rateavg -nan
scalar SingleCell.ue[3].cellularNic.rlc.am rlcPduThroughputUl:simu5g_rateavg -nan
scalar SingleCell.ue[3].cellularNic.rlc.am rlcPduThroughputDl:simu5g_rateavg -nan
scalar SingleCell.ue[3].cellularNic.rlc.am rlcPduDelayUl:mean -nan
scalar SingleCell.ue[3].cellularNic.rlc.am rlcPduDelayDl:mean -nan
scalar SingleCell.ue[3].cellularNic.rlc.am rlcThroughputUl:simu5g_rateavg -nan
scalar SingleCell.ue[3].cellularNic.rlc.am rlcThroughputDl:simu5g_rateavg -nan
scalar SingleCell.ue[3].cellularNic.rlc.am rlcDelayUl:mean -nan
scalar SingleCell.ue[3].cellularNic.rlc.am rlcDelayDl:mean -nan
scalar SingleCell.ue[3].cellularNic.rlc.am rlcPduPacketLossUl:mean -nan
scalar SingleCell.ue[3].cellularNic.rlc.am rlcPduPacketLossDl:mean -nan
scalar SingleCell.ue[3].cellularNic.rlc.am rlcPacketLossUl:mean -nan
scalar SingleCell.ue[3].cellularNic.rlc.am rlcPacketLossDl:mean -nan
scalar SingleCell.ue[3].cellularNic.rlc.am rlcCellPacketLossUl:mean -nan
scalar SingleCell.ue[3].cellularNic.rlc.am rlcCellPacketLossDl:mean -nan
scalar SingleCell.ue[3].cellularNic.mac harqTxAttemptsUl:mean 1.0196779964221825
scalar SingleCell.ue[3].cellularNic.mac harqTxAttemptsDl:mean 1.0344827586206897
scalar SingleCell.ue[3].cellularNic.mac harqErrorRate_4th_Ul:mean -nan
scalar SingleCell.ue[3].cellularNic.mac harqErrorRate_4th_Dl:mean -nan
scalar SingleCell.ue[3].cellularNic.mac harqErrorRate_3rd_Ul:mean -nan
scalar SingleCell.ue[3].cellularNic.mac harqErrorRate_3rd_Dl:mean -nan
scalar SingleCell.ue[3].cellularNic.mac harqErrorRate_2nd_Ul:mean 0
scalar SingleCell.ue[3].cellularNic.mac harqErrorRate_2nd_Dl:mean 0
scalar SingleCell.ue[3].cellularNic.mac harqErrorRate_1st_Ul:mean 0.019677996422182469
scalar SingleCell.ue[3].cellularNic.mac harqErrorRate_1st_Dl:mean 0.034482758620689655
scalar SingleCell.ue[3].cellularNic.mac harqErrorRateUl:mean 0.019298245614035089
scalar SingleCell.ue[3].cellularNic.mac harqErrorRateDl:mean 0.033333333333333333
scalar SingleCell.ue[3].cellularNic.mac macCellPacketLossUl:mean -nan
scalar SingleCell.ue[3].cellularNic.mac macCellPacketLossDl:mean -nan
scalar SingleCell.ue[3].cellularNic.mac macPacketLossUl:mean 0
scalar SingleCell.ue[3].cellularNic.mac macPacketLossDl:mean 0
scalar SingleCell.ue[3].cellularNic.mac macThroughputUl:simu5g_rateavg 2692.5111931454708
scalar SingleCell.ue[3].cellularNic.mac macThroughputDl:simu5g_rateavg 2685.9821091458703
scalar SingleCell.ue[3].cellularNic.mac macDelayUl:mean 0.0056601073345259427
scalar SingleCell.ue[3].cellularNic.mac macDelayDl:mean 0.0042068965517241411
scalar SingleCell.ue[3].cellularNic.mac macCellThroughputUl:simu5g_rateavg -nan
scalar SingleCell.ue[3].cellularNic.mac macCellThroughputDl:simu5g_rateavg -nan
scalar SingleCell.ue[3].cellularNic.mac sentPacketToLowerLayer:count 1397
scalar SingleCell.ue[3].cellularNic.mac sentPacketToLowerLayer:sum(packetBytes) 26664
scalar SingleCell.ue[3].cellularNic.mac sentPacketToUpperLayer:count 965
scalar SingleCell.ue[3].cellularNic.mac sentPacketToUpperLayer:sum(packetBytes) 25325
scalar SingleCell.ue[3].cellularNic.mac receivedPacketFromLowerLayer:count 1967
scalar SingleCell.ue[3].cellularNic.mac receivedPacketFromLowerLayer:sum(packetBytes) 28007
scalar SingleCell.ue[3].cellularNic.mac receivedPacketFromUpperLayer:count 965
scalar SingleCell.ue[3].cellularNic.mac receivedPacketFromUpperLayer:sum(packetBytes) 48214
scalar SingleCell.ue[3].cellularNic.mac macBufferOverFlowD2D:mean -nan
scalar SingleCell.ue[3].cellularNic.mac macBufferOverFlowUl:mean -nan
scalar SingleCell.ue[3].cellularNic.mac macBufferOverFlowDl:mean -nan
scalar SingleCell.ue[3].cellularNic.phy distance:mean 266.38972781796315
scalar SingleCell.ue[3].cellularNic.phy averageCqiUl:mean 9.4438596491228068
scalar SingleCell.ue[3].cellularNic.phy averageCqiUl:count 570
scalar SingleCell.ue[3].cellularNic.phy averageCqiDl:mean 14.697619047619048
scalar SingleCell.ue[3].cellularNic.phy averageCqiDl:count 420
scalar SingleCell.ue[3].cellularNic.channelModel[0] measuredSinrUl:mean 23.409504167218348
scalar SingleCell.ue[3].cellularNic.channelModel[0] measuredSinrDl:mean 36.800179248798585
scalar SingleCell.ue[3].cellularNic.channelModel[0] rcvdSinrD2D:mean -nan
scalar SingleCell.ue[3].cellularNic.channelModel[0] rcvdSinrUl:mean 26.52856757422196
scalar SingleCell.ue[3].cellularNic.channelModel[0] rcvdSinrDl:mean 37.074651279210791
scalar SingleCell.ue[3].cellularNic packetDropInterfaceDown:count 0
scalar SingleCell.ue[3].cellularNic packetDropInterfaceDown:sum(packetBytes) 0
scalar SingleCell.ue[3].cellularNic packetDropNoCarrier:count 0
scalar SingleCell.ue[3].cellularNic packetDropNoCarrier:sum(packetBytes) 0
scalar SingleCell.ue[3].encap pauseSent:count 0
scalar SingleCell.ue[3].encap pauseSent:sum 0
scalar SingleCell.ue[3].encap decapPk:count 0
scalar SingleCell.ue[3].encap decapPk:sum(packetBytes) 0
scalar SingleCell.ue[3].encap encapPk:count 0
scalar SingleCell.ue[3].encap encapPk:sum(packetBytes) 0
scalar SingleCell.ue[3].ipv4.ip packetDropAddressResolutionFailed:count 0
scalar SingleCell.ue[3].ipv4.ip packetDropAddressResolutionFailed:sum(packetBytes) 0
scalar SingleCell.ue[3].ipv4.ip packetDropHopLimitReached:count 0
scalar SingleCell.ue[3].ipv4.ip packetDropHopLimitReached:sum(packetBytes) 0
scalar SingleCell.ue[3].ipv4.ip packetDropForwardingDisabled:count 0
scalar SingleCell.ue[3].ipv4.ip packetDropForwardingDisabled:sum(packetBytes) 0
scalar SingleCell.ue[3].ipv4.ip packetDropNoInterfaceFound:count 0
scalar SingleCell.ue[3].ipv4.ip packetDropNoInterfaceFound:sum(packetBytes) 0
scalar SingleCell.ue[3].ipv4.ip packetDropNoRouteFound:count 0
scalar SingleCell.ue[3].ipv4.ip packetDropNoRouteFound:sum(packetBytes) 0
scalar SingleCell.ue[3].ipv4.ip packetDropUndefined:count 0
scalar SingleCell.ue[3].ipv4.ip packetDropUndefined:sum(packetBytes) 0
scalar SingleCell.ue[3].ipv4.arp arpResolutionFailed:count 0
scalar SingleCell.ue[3].ipv4.arp arpResolutionCompleted:count 0
scalar SingleCell.ue[3].ipv4.arp arpResolutionInitiated:count 0
scalar SingleCell.ue[3].ipv4.arp arpReplySent:count 0
scalar SingleCell.ue[3].ipv4.arp arpReplySent:sum(packetBytes) 0
scalar SingleCell.ue[3].ipv4.arp arpRequestSent:count 0
scalar SingleCell.ue[3].ipv4.arp arpRequestSent:sum(packetBytes) 0
scalar SingleCell.ue[3].udp packetReceived:count 406
scalar SingleCell.ue[3].udp packetReceived:sum(packetBytes) 15428
scalar SingleCell.ue[3].udp packetSent:count 0
scalar SingleCell.ue[3].udp packetSent:sum(packetBytes) 0
scalar SingleCell.ue[3].udp passedUpPk:count 0
scalar SingleCell.ue[3].udp droppedPkWrongPort:count 406
scalar SingleCell.ue[3].udp droppedPkBadChecksum:count 0
scalar SingleCell.ue[4].lo[0].lo rcvdPkFromHl:count 0
scalar SingleCell.ue[4].lo[0].lo rcvdPkFromHl:sum(packetBytes) 0
scalar SingleCell.ue[4].lo[0].lo passedUpPk:count 0
scalar SingleCell.ue[4].lo[0].lo passedUpPk:sum(packetBytes) 0
scalar SingleCell.ue[4].lo[0] packetDropInterfaceDown:count 0
scalar SingleCell.ue[4].lo[0] packetDropInterfaceDown:sum(packetBytes) 0
scalar SingleCell.ue[4].lo[0] packetDropNoCarrier:count 0
scalar SingleCell.ue[4].lo[0] packetDropNoCarrier:sum(packetBytes) 0
scalar SingleCell.ue[4].cellularNic.pdcp sentPacketToLowerLayer:count 308
scalar SingleCell.ue[4].cellularNic.pdcp sentPacketToLowerLayer:sum(packetBytes) 17556
scalar SingleCell.ue[4].cellularNic.pdcp sentPacketToUpperLayer:count 308
scalar SingleCell.ue[4].cellularNic.pdcp sentPacketToUpperLayer:sum(packetBytes) 17864
scalar SingleCell.ue[4].cellularNic.pdcp receivedPacketFromLowerLayer:count 308
scalar SingleCell.ue[4].cellularNic.pdcp receivedPacketFromLowerLayer:sum(packetBytes) 18172
scalar SingleCell.ue[4].cellularNic.pdcp receivedPacketFromUpperLayer:count 308
scalar SingleCell.ue[4].cellularNic.pdcp receivedPacketFromUpperLayer:sum(packetBytes) 17248
scalar SingleCell.ue[4].cellularNic.rlc.tm rlcPacketLossUl:mean -nan
scalar SingleCell.ue[4].cellularNic.rlc.tm rlcPacketLossUl:sum 0
scalar SingleCell.ue[4].cellularNic.rlc.tm rlcPacketLossDl:mean -nan
scalar SingleCell.ue[4].cellularNic.rlc.tm rlcPacketLossDl:sum 0
scalar SingleCell.ue[4].cellularNic.rlc.tm sentPacketToLowerLayer:count 0
scalar SingleCell.ue[4].cellularNic.rlc.tm sentPacketToLowerLayer:sum(packetBytes) 0
scalar SingleCell.ue[4].cellularNic.rlc.tm sentPacketToUpperLayer:count 0
scalar SingleCell.ue[4].cellularNic.rlc.tm sentPacketToUpperLayer:sum(packetBytes) 0
scalar SingleCell.ue[4].cellularNic.rlc.tm receivedPacketFromLowerLayer:count 0
scalar SingleCell.ue[4].cellularNic.rlc.tm receivedPacketFromLowerLayer:sum(packetBytes) 0
scalar SingleCell.ue[4].cellularNic.rlc.tm receivedPacketFromUpperLayer:count 0
scalar SingleCell.ue[4].cellularNic.rlc.tm receivedPacketFromUpperLayer:sum(packetBytes) 0
scalar SingleCell.ue[4].cellularNic.rlc.um rlcCellThroughputUl:simu5g_rateavg -nan
[...]
scalar SingleCell.ue[49].cellularNic.mac sentPacketToUpperLayer:vector(packetBytes):endtime nan
scalar SingleCell.ue[49].cellularNic.mac sentPacketToLowerLayer:vector(packetBytes):count 0
scalar SingleCell.ue[49].cellularNic.mac sentPacketToLowerLayer:vector(packetBytes):sum 0
scalar SingleCell.ue[49].cellularNic.mac sentPacketToLowerLayer:vector(packetBytes):sumweights 0
scalar SingleCell.ue[49].cellularNic.mac sentPacketToLowerLayer:vector(packetBytes):mean -nan
scalar SingleCell.ue[49].cellularNic.mac sentPacketToLowerLayer:vector(packetBytes):stddev nan
scalar SingleCell.ue[49].cellularNic.mac sentPacketToLowerLayer:vector(packetBytes):min inf
scalar SingleCell.ue[49].cellularNic.mac sentPacketToLowerLayer:vector(packetBytes):max -inf
scalar SingleCell.ue[49].cellularNic.mac sentPacketToLowerLayer:vector(packetBytes):starttime nan
scalar SingleCell.ue[49].cellularNic.mac sentPacketToLowerLayer:vector(packetBytes):endtime nan
scalar SingleCell.ue[49].cellularNic.phy distance:vector:count 0
scalar SingleCell.ue[49].cellularNic.phy distance:vector:sum 0
scalar SingleCell.ue[49].cellularNic.phy distance:vector:sumweights 0
scalar SingleCell.ue[49].cellularNic.phy distance:vector:mean -nan
scalar SingleCell.ue[49].cellularNic.phy distance:vector:stddev nan
scalar SingleCell.ue[49].cellularNic.phy distance:vector:min inf
scalar SingleCell.ue[49].cellularNic.phy distance:vector:max -inf
scalar SingleCell.ue[49].cellularNic.phy distance:vector:starttime nan
scalar SingleCell.ue[49].cellularNic.phy distance:vector:endtime nan
scalar SingleCell.ue[49].cellularNic.phy servingCell:vector:count 0
scalar SingleCell.ue[49].cellularNic.phy servingCell:vector:sum 0
scalar SingleCell.ue[49].cellularNic.phy servingCell:vector:sumweights 0
scalar SingleCell.ue[49].cellularNic.phy servingCell:vector:mean -nan
scalar SingleCell.ue[49].cellularNic.phy servingCell:vector:stddev nan
scalar SingleCell.ue[49].cellularNic.phy servingCell:vector:min inf
scalar SingleCell.ue[49].cellularNic.phy servingCell:vector:max -inf
scalar SingleCell.ue[49].cellularNic.phy servingCell:vector:starttime nan
scalar SingleCell.ue[49].cellularNic.phy servingCell:vector:endtime nan
scalar SingleCell.ue[49].cellularNic.phy averageCqiDl:vector:count 0
scalar SingleCell.ue[49].cellularNic.phy averageCqiDl:vector:sum 0
scalar SingleCell.ue[49].cellularNic.phy averageCqiDl:vector:sumweights 0
scalar SingleCell.ue[49].cellularNic.phy averageCqiDl:vector:mean -nan
scalar SingleCell.ue[49].cellularNic.phy averageCqiDl:vector:stddev nan
scalar SingleCell.ue[49].cellularNic.phy averageCqiDl:vector:min inf
scalar SingleCell.ue[49].cellularNic.phy averageCqiDl:vector:max -inf
scalar SingleCell.ue[49].cellularNic.phy averageCqiDl:vector:starttime nan
scalar SingleCell.ue[49].cellularNic.phy averageCqiDl:vector:endtime nan
scalar SingleCell.ue[49].cellularNic.phy averageCqiUl:vector:count 0
scalar SingleCell.ue[49].cellularNic.phy averageCqiUl:vector:sum 0
scalar SingleCell.ue[49].cellularNic.phy averageCqiUl:vector:sumweights 0
scalar SingleCell.ue[49].cellularNic.phy averageCqiUl:vector:mean -nan
scalar SingleCell.ue[49].cellularNic.phy averageCqiUl:vector:stddev nan
scalar SingleCell.ue[49].cellularNic.phy averageCqiUl:vector:min inf
scalar SingleCell.ue[49].cellularNic.phy averageCqiUl:vector:max -inf
scalar SingleCell.ue[49].cellularNic.phy averageCqiUl:vector:starttime nan
scalar SingleCell.ue[49].cellularNic.phy averageCqiUl:vector:endtime nan
scalar SingleCell.ue[49].cellularNic.channelModel[0] rcvdSinrDl:vector:count 0
scalar SingleCell.ue[49].cellularNic.channelModel[0] rcvdSinrDl:vector:sum 0
scalar SingleCell.ue[49].cellularNic.channelModel[0] rcvdSinrDl:vector:sumweights 0
scalar SingleCell.ue[49].cellularNic.channelModel[0] rcvdSinrDl:vector:mean -nan
scalar SingleCell.ue[49].cellularNic.channelModel[0] rcvdSinrDl:vector:stddev nan
scalar SingleCell.ue[49].cellularNic.channelModel[0] rcvdSinrDl:vector:min inf
scalar SingleCell.ue[49].cellularNic.channelModel[0] rcvdSinrDl:vector:max -inf
scalar SingleCell.ue[49].cellularNic.channelModel[0] rcvdSinrDl:vector:starttime nan
scalar SingleCell.ue[49].cellularNic.channelModel[0] rcvdSinrDl:vector:endtime nan
scalar SingleCell.ue[49].cellularNic.channelModel[0] rcvdSinrUl:vector:count 0
scalar SingleCell.ue[49].cellularNic.channelModel[0] rcvdSinrUl:vector:sum 0
scalar SingleCell.ue[49].cellularNic.channelModel[0] rcvdSinrUl:vector:sumweights 0
scalar SingleCell.ue[49].cellularNic.channelModel[0] rcvdSinrUl:vector:mean -nan
scalar SingleCell.ue[49].cellularNic.channelModel[0] rcvdSinrUl:vector:stddev nan
scalar SingleCell.ue[49].cellularNic.channelModel[0] rcvdSinrUl:vector:min inf
scalar SingleCell.ue[49].cellularNic.channelModel[0] rcvdSinrUl:vector:max -inf
scalar SingleCell.ue[49].cellularNic.channelModel[0] rcvdSinrUl:vector:starttime nan
scalar SingleCell.ue[49].cellularNic.channelModel[0] rcvdSinrUl:vector:endtime nan
scalar SingleCell.ue[49].cellularNic.channelModel[0] rcvdSinrD2D:vector:count 0
scalar SingleCell.ue[49].cellularNic.channelModel[0] rcvdSinrD2D:vector:sum 0
scalar SingleCell.ue[49].cellularNic.channelModel[0] rcvdSinrD2D:vector:sumweights 0
scalar SingleCell.ue[49].cellularNic.channelModel[0] rcvdSinrD2D:vector:mean -nan
scalar SingleCell.ue[49].cellularNic.channelModel[0] rcvdSinrD2D:vector:stddev nan
scalar SingleCell.ue[49].cellularNic.channelModel[0] rcvdSinrD2D:vector:min inf
scalar SingleCell.ue[49].cellularNic.channelModel[0] rcvdSinrD2D:vector:max -inf
scalar SingleCell.ue[49].cellularNic.channelModel[0] rcvdSinrD2D:vector:starttime nan
scalar SingleCell.ue[49].cellularNic.channelModel[0] rcvdSinrD2D:vector:endtime nan
scalar SingleCell.ue[49].cellularNic.channelModel[0] measuredSinrDl:vector:count 0
scalar SingleCell.ue[49].cellularNic.channelModel[0] measuredSinrDl:vector:sum 0
scalar SingleCell.ue[49].cellularNic.channelModel[0] measuredSinrDl:vector:sumweights 0
scalar SingleCell.ue[49].cellularNic.channelModel[0] measuredSinrDl:vector:mean -nan
scalar SingleCell.ue[49].cellularNic.channelModel[0] measuredSinrDl:vector:stddev nan
scalar SingleCell.ue[49].cellularNic.channelModel[0] measuredSinrDl:vector:min inf
scalar SingleCell.ue[49].cellularNic.channelModel[0] measuredSinrDl:vector:max -inf
scalar SingleCell.ue[49].cellularNic.channelModel[0] measuredSinrDl:vector:starttime nan
scalar SingleCell.ue[49].cellularNic.channelModel[0] measuredSinrDl:vector:endtime nan
scalar SingleCell.ue[49].cellularNic.channelModel[0] measuredSinrUl:vector:count 0
scalar SingleCell.ue[49].cellularNic.channelModel[0] measuredSinrUl:vector:sum 0
scalar SingleCell.ue[49].cellularNic.channelModel[0] measuredSinrUl:vector:sumweights 0
scalar SingleCell.ue[49].cellularNic.channelModel[0] measuredSinrUl:vector:mean -nan
scalar SingleCell.ue[49].cellularNic.channelModel[0] measuredSinrUl:vector:stddev nan
scalar SingleCell.ue[49].cellularNic.channelModel[0] measuredSinrUl:vector:min inf
scalar SingleCell.ue[49].cellularNic.channelModel[0] measuredSinrUl:vector:max -inf
scalar SingleCell.ue[49].cellularNic.channelModel[0] measuredSinrUl:vector:starttime nan
scalar SingleCell.ue[49].cellularNic.channelModel[0] measuredSinrUl:vector:endtime nan
scalar SingleCell.ue[49].cellularNic packetDropInterfaceDown:vector(packetBytes):count 0
scalar SingleCell.ue[49].cellularNic packetDropInterfaceDown:vector(packetBytes):sum 0
scalar SingleCell.ue[49].cellularNic packetDropInterfaceDown:vector(packetBytes):sumweights 0
scalar SingleCell.ue[49].cellularNic packetDropInterfaceDown:vector(packetBytes):mean -nan
scalar SingleCell.ue[49].cellularNic packetDropInterfaceDown:vector(packetBytes):stddev nan
scalar SingleCell.ue[49].cellularNic packetDropInterfaceDown:vector(packetBytes):min inf
scalar SingleCell.ue[49].cellularNic packetDropInterfaceDown:vector(packetBytes):max -inf
scalar SingleCell.ue[49].cellularNic packetDropInterfaceDown:vector(packetBytes):starttime nan
scalar SingleCell.ue[49].cellularNic packetDropInterfaceDown:vector(packetBytes):endtime nan
scalar SingleCell.ue[49].cellularNic packetDropNoCarrier:vector(packetBytes):count 0
scalar SingleCell.ue[49].cellularNic packetDropNoCarrier:vector(packetBytes):sum 0
scalar SingleCell.ue[49].cellularNic packetDropNoCarrier:vector(packetBytes):sumweights 0
scalar SingleCell.ue[49].cellularNic packetDropNoCarrier:vector(packetBytes):mean -nan
scalar SingleCell.ue[49].cellularNic packetDropNoCarrier:vector(packetBytes):stddev nan
scalar SingleCell.ue[49].cellularNic packetDropNoCarrier:vector(packetBytes):min inf
scalar SingleCell.ue[49].cellularNic packetDropNoCarrier:vector(packetBytes):max -inf
scalar SingleCell.ue[49].cellularNic packetDropNoCarrier:vector(packetBytes):starttime nan
scalar SingleCell.ue[49].cellularNic packetDropNoCarrier:vector(packetBytes):endtime nan
scalar SingleCell.ue[49].encap encapPk:vector(packetBytes):count 0
scalar SingleCell.ue[49].encap encapPk:vector(packetBytes):sum 0
scalar SingleCell.ue[49].encap encapPk:vector(packetBytes):sumweights 0
scalar SingleCell.ue[49].encap encapPk:vector(packetBytes):mean -nan
scalar SingleCell.ue[49].encap encapPk:vector(packetBytes):stddev nan
scalar SingleCell.ue[49].encap encapPk:vector(packetBytes):min inf
scalar SingleCell.ue[49].encap encapPk:vector(packetBytes):max -inf
scalar SingleCell.ue[49].encap encapPk:vector(packetBytes):starttime nan
scalar SingleCell.ue[49].encap encapPk:vector(packetBytes):endtime nan
scalar SingleCell.ue[49].encap decapPk:vector(packetBytes):count 0
scalar SingleCell.ue[49].encap decapPk:vector(packetBytes):sum 0
scalar SingleCell.ue[49].encap decapPk:vector(packetBytes):sumweights 0
scalar SingleCell.ue[49].encap decapPk:vector(packetBytes):mean -nan
scalar SingleCell.ue[49].encap decapPk:vector(packetBytes):stddev nan
scalar SingleCell.ue[49].encap decapPk:vector(packetBytes):min inf
scalar SingleCell.ue[49].encap decapPk:vector(packetBytes):max -inf
scalar SingleCell.ue[49].encap decapPk:vector(packetBytes):starttime nan
scalar SingleCell.ue[49].encap decapPk:vector(packetBytes):endtime nan
scalar SingleCell.ue[49].encap pauseSent:vector:count 0
scalar SingleCell.ue[49].encap pauseSent:vector:sum 0
scalar SingleCell.ue[49].encap pauseSent:vector:sumweights 0
scalar SingleCell.ue[49].encap pauseSent:vector:mean -nan
scalar SingleCell.ue[49].encap pauseSent:vector:stddev nan
scalar SingleCell.ue[49].encap pauseSent:vector:min inf
scalar SingleCell.ue[49].encap pauseSent:vector:max -inf
scalar SingleCell.ue[49].encap pauseSent:vector:starttime nan
scalar SingleCell.ue[49].encap pauseSent:vector:endtime nan
scalar SingleCell.ue[49].ipv4.ip packetDropAddressResolutionFailed:vector(packetBytes):count 0
scalar SingleCell.ue[49].ipv4.ip packetDropAddressResolutionFailed:vector(packetBytes):sum 0
scalar SingleCell.ue[49].ipv4.ip packetDropAddressResolutionFailed:vector(packetBytes):sumweights 0
scalar SingleCell.ue[49].ipv4.ip packetDropAddressResolutionFailed:vector(packetBytes):mean -nan
scalar SingleCell.ue[49].ipv4.ip packetDropAddressResolutionFailed:vector(packetBytes):stddev nan
scalar SingleCell.ue[49].ipv4.ip packetDropAddressResolutionFailed:vector(packetBytes):min inf
scalar SingleCell.ue[49].ipv4.ip packetDropAddressResolutionFailed:vector(packetBytes):max -inf
scalar SingleCell.ue[49].ipv4.ip packetDropAddressResolutionFailed:vector(packetBytes):starttime nan
scalar SingleCell.ue[49].ipv4.ip packetDropAddressResolutionFailed:vector(packetBytes):endtime nan
scalar SingleCell.ue[49].ipv4.ip packetDropHopLimitReached:vector(packetBytes):count 0
scalar SingleCell.ue[49].ipv4.ip packetDropHopLimitReached:vector(packetBytes):sum 0
scalar SingleCell.ue[49].ipv4.ip packetDropHopLimitReached:vector(packetBytes):sumweights 0
scalar SingleCell.ue[49].ipv4.ip packetDropHopLimitReached:vector(packetBytes):mean -nan
scalar SingleCell.ue[49].ipv4.ip packetDropHopLimitReached:vector(packetBytes):stddev nan
scalar SingleCell.ue[49].ipv4.ip packetDropHopLimitReached:vector(packetBytes):min inf
scalar SingleCell.ue[49].ipv4.ip packetDropHopLimitReached:vector(packetBytes):max -inf
scalar SingleCell.ue[49].ipv4.ip packetDropHopLimitReached:vector(packetBytes):starttime nan
scalar SingleCell.ue[49].ipv4.ip packetDropHopLimitReached:vector(packetBytes):endtime nan
scalar SingleCell.ue[49].ipv4.ip packetDropForwardingDisabled:vector(packetBytes):count 0
scalar SingleCell.ue[49].ipv4.ip packetDropForwardingDisabled:vector(packetBytes):sum 0
scalar SingleCell.ue[49].ipv4.ip packetDropForwardingDisabled:vector(packetBytes):sumweights 0
scalar SingleCell.ue[49].ipv4.ip packetDropForwardingDisabled:vector(packetBytes):mean -nan
scalar SingleCell.ue[49].ipv4.ip packetDropForwardingDisabled:vector(packetBytes):stddev nan
scalar SingleCell.ue[49].ipv4.ip packetDropForwardingDisabled:vector(packetBytes):min inf
scalar SingleCell.ue[49].ipv4.ip packetDropForwardingDisabled:vector(packetBytes):max -inf
scalar SingleCell.ue[49].ipv4.ip packetDropForwardingDisabled:vector(packetBytes):starttime nan
scalar SingleCell.ue[49].ipv4.ip packetDropForwardingDisabled:vector(packetBytes):endtime nan
scalar SingleCell.ue[49].ipv4.ip packetDropNoInterfaceFound:vector(packetBytes):count 0
scalar SingleCell.ue[49].ipv4.ip packetDropNoInterfaceFound:vector(packetBytes):sum 0
scalar SingleCell.ue[49].ipv4.ip packetDropNoInterfaceFound:vector(packetBytes):sumweights 0
scalar SingleCell.ue[49].ipv4.ip packetDropNoInterfaceFound:vector(packetBytes):mean -nan
scalar SingleCell.ue[49].ipv4.ip packetDropNoInterfaceFound:vector(packetBytes):stddev nan
scalar SingleCell.ue[49].ipv4.ip packetDropNoInterfaceFound:vector(packetBytes):min inf
scalar SingleCell.ue[49].ipv4.ip packetDropNoInterfaceFound:vector(packetBytes):max -inf
scalar SingleCell.ue[49].ipv4.ip packetDropNoInterfaceFound:vector(packetBytes):starttime nan
scalar SingleCell.ue[49].ipv4.ip packetDropNoInterfaceFound:vector(packetBytes):endtime nan
scalar SingleCell.ue[49].ipv4.ip packetDropNoRouteFound:vector(packetBytes):count 0
scalar SingleCell.ue[49].ipv4.ip packetDropNoRouteFound:vector(packetBytes):sum 0
scalar SingleCell.ue[49].ipv4.ip packetDropNoRouteFound:vector(packetBytes):sumweights 0
scalar SingleCell.ue[49].ipv4.ip packetDropNoRouteFound:vector(packetBytes):mean -nan
scalar SingleCell.ue[49].ipv4.ip packetDropNoRouteFound:vector(packetBytes):stddev nan
scalar SingleCell.ue[49].ipv4.ip packetDropNoRouteFound:vector(packetBytes):min inf
scalar SingleCell.ue[49].ipv4.ip packetDropNoRouteFound:vector(packetBytes):max -inf
scalar SingleCell.ue[49].ipv4.ip packetDropNoRouteFound:vector(packetBytes):starttime nan
scalar SingleCell.ue[49].ipv4.ip packetDropNoRouteFound:vector(packetBytes):endtime nan
scalar SingleCell.ue[49].ipv4.ip packetDropUndefined:vector(packetBytes):count 0
scalar SingleCell.ue[49].ipv4.ip packetDropUndefined:vector(packetBytes):sum 0
scalar SingleCell.ue[49].ipv4.ip packetDropUndefined:vector(packetBytes):sumweights 0
scalar SingleCell.ue[49].ipv4.ip packetDropUndefined:vector(packetBytes):mean -nan
scalar SingleCell.ue[49].ipv4.ip packetDropUndefined:vector(packetBytes):stddev nan
scalar SingleCell.ue[49].ipv4.ip packetDropUndefined:vector(packetBytes):min inf
scalar SingleCell.ue[49].ipv4.ip packetDropUndefined:vector(packetBytes):max -inf
scalar SingleCell.ue[49].ipv4.ip packetDropUndefined:vector(packetBytes):starttime nan
scalar SingleCell.ue[49].ipv4.ip packetDropUndefined:vector(packetBytes):endtime nan
scalar SingleCell.ue[49].ipv4.arp arpRequestSent:vector(packetBytes):count 0
scalar SingleCell.ue[49].ipv4.arp arpRequestSent:vector(packetBytes):sum 0
scalar SingleCell.ue[49].ipv4.arp arpRequestSent:vector(packetBytes):sumweights 0
scalar SingleCell.ue[49].ipv4.arp arpRequestSent:vector(packetBytes):mean -nan
scalar SingleCell.ue[49].ipv4.arp arpRequestSent:vector(packetBytes):stddev nan
scalar SingleCell.ue[49].ipv4.arp arpRequestSent:vector(packetBytes):min inf
scalar SingleCell.ue[49].ipv4.arp arpRequestSent:vector(packetBytes):max -inf
scalar SingleCell.ue[49].ipv4.arp arpRequestSent:vector(packetBytes):starttime nan
scalar SingleCell.ue[49].ipv4.arp arpRequestSent:vector(packetBytes):endtime nan
scalar SingleCell.ue[49].ipv4.arp arpReplySent:vector(packetBytes):count 0
scalar SingleCell.ue[49].ipv4.arp arpReplySent:vector(packetBytes):sum 0
scalar SingleCell.ue[49].ipv4.arp arpReplySent:vector(packetBytes):sumweights 0
scalar SingleCell.ue[49].ipv4.arp arpReplySent:vector(packetBytes):mean -nan
scalar SingleCell.ue[49].ipv4.arp arpReplySent:vector(packetBytes):stddev nan
scalar SingleCell.ue[49].ipv4.arp arpReplySent:vector(packetBytes):min inf
scalar SingleCell.ue[49].ipv4.arp arpReplySent:vector(packetBytes):max -inf
scalar SingleCell.ue[49].ipv4.arp arpReplySent:vector(packetBytes):starttime nan
scalar SingleCell.ue[49].ipv4.arp arpReplySent:vector(packetBytes):endtime nan
scalar SingleCell.ue[49].udp packetSent:vector(packetBytes):count 0
scalar SingleCell.ue[49].udp packetSent:vector(packetBytes):sum 0
scalar SingleCell.ue[49].udp packetSent:vector(packetBytes):sumweights 0
scalar SingleCell.ue[49].udp packetSent:vector(packetBytes):mean -nan
scalar SingleCell.ue[49].udp packetSent:vector(packetBytes):stddev nan
scalar SingleCell.ue[49].udp packetSent:vector(packetBytes):min inf
scalar SingleCell.ue[49].udp packetSent:vector(packetBytes):max -inf
scalar SingleCell.ue[49].udp packetSent:vector(packetBytes):starttime nan
scalar SingleCell.ue[49].udp packetSent:vector(packetBytes):endtime nan
scalar SingleCell.ue[49].udp packetReceived:vector(packetBytes):count 0
scalar SingleCell.ue[49].udp packetReceived:vector(packetBytes):sum 0
scalar SingleCell.ue[49].udp packetReceived:vector(packetBytes):sumweights 0
scalar SingleCell.ue[49].udp packetReceived:vector(packetBytes):mean -nan
scalar SingleCell.ue[49].udp packetReceived:vector(packetBytes):stddev nan
scalar SingleCell.ue[49].udp packetReceived:vector(packetBytes):min inf
scalar SingleCell.ue[49].udp packetReceived:vector(packetBytes):max -inf
scalar SingleCell.ue[49].udp packetReceived:vector(packetBytes):starttime nan
scalar SingleCell.ue[49].udp packetReceived:vector(packetBytes):endtime nan
scalar SingleCell.ue[49].udp passedUpPk:vector(count):count 0
scalar SingleCell.ue[49].udp passedUpPk:vector(count):sum 0
scalar SingleCell.ue[49].udp passedUpPk:vector(count):sumweights 0
scalar SingleCell.ue[49].udp passedUpPk:vector(count):mean -nan
scalar SingleCell.ue[49].udp passedUpPk:vector(count):stddev nan
scalar SingleCell.ue[49].udp passedUpPk:vector(count):min inf
scalar SingleCell.ue[49].udp passedUpPk:vector(count):max -inf
scalar SingleCell.ue[49].udp passedUpPk:vector(count):starttime nan
scalar SingleCell.ue[49].udp passedUpPk:vector(count):endtime nan
scalar SingleCell.ue[49].udp droppedPkWrongPort:vector(count):count 0
scalar SingleCell.ue[49].udp droppedPkWrongPort:vector(count):sum 0
scalar SingleCell.ue[49].udp droppedPkWrongPort:vector(count):sumweights 0
scalar SingleCell.ue[49].udp droppedPkWrongPort:vector(count):mean -nan
scalar SingleCell.ue[49].udp droppedPkWrongPort:vector(count):stddev nan
scalar SingleCell.ue[49].udp droppedPkWrongPort:vector(count):min inf
scalar SingleCell.ue[49].udp droppedPkWrongPort:vector(count):max -inf
scalar SingleCell.ue[49].udp droppedPkWrongPort:vector(count):starttime nan
scalar SingleCell.ue[49].udp droppedPkWrongPort:vector(count):endtime nan
scalar SingleCell.ue[49].udp droppedPkBadChecksum:vector(count):count 0
scalar SingleCell.ue[49].udp droppedPkBadChecksum:vector(count):sum 0
scalar SingleCell.ue[49].udp droppedPkBadChecksum:vector(count):sumweights 0
scalar SingleCell.ue[49].udp droppedPkBadChecksum:vector(count):mean -nan
scalar SingleCell.ue[49].udp droppedPkBadChecksum:vector(count):stddev nan
scalar SingleCell.ue[49].udp droppedPkBadChecksum:vector(count):min inf
scalar SingleCell.ue[49].udp droppedPkBadChecksum:vector(count):max -inf
scalar SingleCell.ue[49].udp droppedPkBadChecksum:vector(count):starttime nan
scalar SingleCell.ue[49].udp droppedPkBadChecksum:vector(count):endtime nan

