version 3
run VoIP-DL-0-20260712-14:05:42-20507
attr configname VoIP-DL
attr datetime 20260712-14:05:42
attr datetimef 20260712-140542
attr experiment VoIP-DL
attr inifile omnetpp.ini
attr iterationvars $numUEs=5
attr iterationvarsd numUEs=5
attr iterationvarsf numUEs=5-
attr measurement $numUEs=5
attr network simu5g.simulations.lte.networks.SingleCell
attr processid 20507
attr repetition 0
attr replication #0
attr resultdir results
attr runnumber 0
attr seedset 0
itervar numUEs 5
config **.param-recording false
config image-path /home/andras/projects/Simu5G-fork/simu5g-fork/images
config output-scalar-file results/omnetpp.ini-VoIP-DL-#0.sca
config output-scalar-precision 17
config output-vector-file results/omnetpp.ini-VoIP-DL-#0.vec
config output-vector-precision 17
config record-eventlog false
config sim-time-limit 20s
config network simu5g.simulations.lte.networks.SingleCell
config sim-time-limit 20s
config *.configurator.dumpAddresses true
config **.mac.schedulingDisciplineDl "\"MAXCI\""
config **.mac.schedulingDisciplineUl "\"MAXCI\""
config *.ue[*].numApps 1
config *.numUe 5
config **.vector-recording true
config *.server.numApps 5
config **.ue[*].servingNodeId 1
config *.ue[*].mobility.initialMovementHeading "uniform(0deg, 360deg)"
config *.ue[*].mobility.constraintAreaMaxX 1000m
config *.ue[*].mobility.constraintAreaMaxY 1000m
config *.ue[*].mobility.constraintAreaMinX 0m
config *.ue[*].mobility.constraintAreaMinY 0m
config *.ue[*].mobility.initFromDisplayString false
config *.ue[*].mobility.initialX uniform(0m,600m)
config *.ue[*].mobility.initialY uniform(0m,600m)
config *.eNB.mobility.initialX 300m
config *.eNB.mobility.initialY 300m
config *.ue[*].mobility.initialZ 0m
config *.ue[*].mobility.speed 1mps
config *.ue[*].mobility.typename LinearMobility
config *.ue[*].app[0].typename VoipReceiver
config *.ue[*].app[0].localPort 3000
config *.server.app[*].typename VoipSender
config *.server.app[*].packetSize 40B
config *.server.app[*].destAddress "\"ue[\"+string(ancestorIndex(0))+\"]\""
config *.server.app[*].destPort 3000
config *.server.app[*].localPort 3088+ancestorIndex(0)
config *.server.app[*].startTime uniform(0s,0.02s)
config sim-time-limit 20s
config output-scalar-file results/VoIP-DL/0.sca
config output-vector-file results/VoIP-DL/0.vec
config seed-set 0
config **.vector-recording false
config **.mobility.constraintAreaMinZ 0m
config **.mobility.constraintAreaMaxZ 0m
config **.mobility.initFromDisplayString true
config **.numBands 6
config **.ueTxPower 26dBm
config **.eNodeBTxPower 40dBm
config *.configurator.config "xmldoc(\"./demo.xml\")"

scalar SingleCell.server.lo[0].lo rcvdPkFromHl:count 0
scalar SingleCell.server.lo[0].lo rcvdPkFromHl:sum(packetBytes) 0
scalar SingleCell.server.lo[0].lo passedUpPk:count 0
scalar SingleCell.server.lo[0].lo passedUpPk:sum(packetBytes) 0
scalar SingleCell.server.lo[0] packetDropInterfaceDown:count 0
scalar SingleCell.server.lo[0] packetDropInterfaceDown:sum(packetBytes) 0
scalar SingleCell.server.lo[0] packetDropNoCarrier:count 0
scalar SingleCell.server.lo[0] packetDropNoCarrier:sum(packetBytes) 0
scalar SingleCell.server.ppp[0].queue queueLength:last 0
scalar SingleCell.server.ppp[0].queue queueLength:max 0
scalar SingleCell.server.ppp[0].queue queueLength:timeavg 0
scalar SingleCell.server.ppp[0].queue queueBitLength:last 0
scalar SingleCell.server.ppp[0].queue queueBitLength:max 0
scalar SingleCell.server.ppp[0].queue queueBitLength:timeavg 0
scalar SingleCell.server.ppp[0].queue outgoingPackets:count 3034
scalar SingleCell.server.ppp[0].queue outgoingPacketLengths:sum 1650496
scalar SingleCell.server.ppp[0].queue incomingPackets:count 3034
scalar SingleCell.server.ppp[0].queue incomingPacketLengths:sum 1650496
scalar SingleCell.server.ppp[0].queue droppedPacketsQueueOverflow:count 0
scalar SingleCell.server.ppp[0].queue droppedPacketLengthsQueueOverflow:sum 0
scalar SingleCell.server.ppp[0].ppp transmissionState:timeavg 9.1019999999996615e-06
scalar SingleCell.server.ppp[0].ppp rxPkOk:count 0
scalar SingleCell.server.ppp[0].ppp rxPkOk:sum(packetBytes) 0
scalar SingleCell.server.ppp[0].ppp txPk:count 3034
scalar SingleCell.server.ppp[0].ppp txPk:sum(packetBytes) 227550
scalar SingleCell.server.ppp[0].ppp rcvdPkFromHl:count 3034
scalar SingleCell.server.ppp[0].ppp rcvdPkFromHl:sum(packetBytes) 206312
scalar SingleCell.server.ppp[0].ppp passedUpPk:count 0
scalar SingleCell.server.ppp[0].ppp passedUpPk:sum(packetBytes) 0
scalar SingleCell.server.ppp[0].ppp packetDropIncorrectlyReceived:count 0
scalar SingleCell.server.ppp[0].ppp packetDropIncorrectlyReceived:sum(packetBytes) 0
scalar SingleCell.server.ppp[0].ppp packetDropInterfaceDown:count 0
scalar SingleCell.server.ppp[0].ppp packetDropInterfaceDown:sum(packetBytes) 0
scalar SingleCell.server.ppp[0] packetDropInterfaceDown:count 0
scalar SingleCell.server.ppp[0] packetDropInterfaceDown:sum(packetBytes) 0
scalar SingleCell.server.ppp[0] packetDropNoCarrier:count 0
scalar SingleCell.server.ppp[0] packetDropNoCarrier:sum(packetBytes) 0
scalar SingleCell.server.ipv4.ip packetDropAddressResolutionFailed:count 0
scalar SingleCell.server.ipv4.ip packetDropAddressResolutionFailed:sum(packetBytes) 0
scalar SingleCell.server.ipv4.ip packetDropHopLimitReached:count 0
scalar SingleCell.server.ipv4.ip packetDropHopLimitReached:sum(packetBytes) 0
scalar SingleCell.server.ipv4.ip packetDropForwardingDisabled:count 0
scalar SingleCell.server.ipv4.ip packetDropForwardingDisabled:sum(packetBytes) 0
scalar SingleCell.server.ipv4.ip packetDropNoInterfaceFound:count 0
scalar SingleCell.server.ipv4.ip packetDropNoInterfaceFound:sum(packetBytes) 0
scalar SingleCell.server.ipv4.ip packetDropNoRouteFound:count 0
scalar SingleCell.server.ipv4.ip packetDropNoRouteFound:sum(packetBytes) 0
scalar SingleCell.server.ipv4.ip packetDropUndefined:count 0
scalar SingleCell.server.ipv4.ip packetDropUndefined:sum(packetBytes) 0
scalar SingleCell.server.ipv4.arp arpResolutionFailed:count 0
scalar SingleCell.server.ipv4.arp arpResolutionCompleted:count 0
scalar SingleCell.server.ipv4.arp arpResolutionInitiated:count 0
scalar SingleCell.server.ipv4.arp arpReplySent:count 0
scalar SingleCell.server.ipv4.arp arpReplySent:sum(packetBytes) 0
scalar SingleCell.server.ipv4.arp arpRequestSent:count 0
scalar SingleCell.server.ipv4.arp arpRequestSent:sum(packetBytes) 0
scalar SingleCell.server.udp packetReceived:count 0
scalar SingleCell.server.udp packetReceived:sum(packetBytes) 0
scalar SingleCell.server.udp packetSent:count 3034
scalar SingleCell.server.udp packetSent:sum(packetBytes) 145632
scalar SingleCell.server.udp passedUpPk:count 0
scalar SingleCell.server.udp droppedPkWrongPort:count 0
scalar SingleCell.server.udp droppedPkBadChecksum:count 0
scalar SingleCell.server.app[0] voipGeneratedThroughput:simu5g_rateavg 1376.972762191813
scalar SingleCell.server.app[1] voipGeneratedThroughput:simu5g_rateavg 950.96606129915551
scalar SingleCell.server.app[2] voipGeneratedThroughput:simu5g_rateavg 1052.5924178851833
scalar SingleCell.server.app[3] voipGeneratedThroughput:simu5g_rateavg 1129.3599240377762
scalar SingleCell.server.app[4] voipGeneratedThroughput:simu5g_rateavg 1394.0433124619444
scalar SingleCell.router.lo[0].lo rcvdPkFromHl:count 0
scalar SingleCell.router.lo[0].lo rcvdPkFromHl:sum(packetBytes) 0
scalar SingleCell.router.lo[0].lo passedUpPk:count 0
scalar SingleCell.router.lo[0].lo passedUpPk:sum(packetBytes) 0
scalar SingleCell.router.lo[0] packetDropInterfaceDown:count 0
scalar SingleCell.router.lo[0] packetDropInterfaceDown:sum(packetBytes) 0
scalar SingleCell.router.lo[0] packetDropNoCarrier:count 0
scalar SingleCell.router.lo[0] packetDropNoCarrier:sum(packetBytes) 0
scalar SingleCell.router.ppp[0].queue queueLength:last 0
scalar SingleCell.router.ppp[0].queue queueLength:max 0
scalar SingleCell.router.ppp[0].queue queueLength:timeavg 0
scalar SingleCell.router.ppp[0].queue queueBitLength:last 0
scalar SingleCell.router.ppp[0].queue queueBitLength:max 0
scalar SingleCell.router.ppp[0].queue queueBitLength:timeavg 0
scalar SingleCell.router.ppp[0].queue outgoingPackets:count 0
scalar SingleCell.router.ppp[0].queue outgoingPacketLengths:sum 0
scalar SingleCell.router.ppp[0].queue incomingPackets:count 0
scalar SingleCell.router.ppp[0].queue incomingPacketLengths:sum 0
scalar SingleCell.router.ppp[0].queue droppedPacketsQueueOverflow:count 0
scalar SingleCell.router.ppp[0].queue droppedPacketLengthsQueueOverflow:sum 0
scalar SingleCell.router.ppp[0].ppp transmissionState:timeavg 0
scalar SingleCell.router.ppp[0].ppp rxPkOk:count 3034
scalar SingleCell.router.ppp[0].ppp rxPkOk:sum(packetBytes) 227550
scalar SingleCell.router.ppp[0].ppp txPk:count 0
scalar SingleCell.router.ppp[0].ppp txPk:sum(packetBytes) 0
scalar SingleCell.router.ppp[0].ppp rcvdPkFromHl:count 0
scalar SingleCell.router.ppp[0].ppp rcvdPkFromHl:sum(packetBytes) 0
scalar SingleCell.router.ppp[0].ppp passedUpPk:count 3034
scalar SingleCell.router.ppp[0].ppp passedUpPk:sum(packetBytes) 206312
scalar SingleCell.router.ppp[0].ppp packetDropIncorrectlyReceived:count 0
scalar SingleCell.router.ppp[0].ppp packetDropIncorrectlyReceived:sum(packetBytes) 0
scalar SingleCell.router.ppp[0].ppp packetDropInterfaceDown:count 0
scalar SingleCell.router.ppp[0].ppp packetDropInterfaceDown:sum(packetBytes) 0
scalar SingleCell.router.ppp[0] packetDropInterfaceDown:count 0
scalar SingleCell.router.ppp[0] packetDropInterfaceDown:sum(packetBytes) 0
scalar SingleCell.router.ppp[0] packetDropNoCarrier:count 0
scalar SingleCell.router.ppp[0] packetDropNoCarrier:sum(packetBytes) 0
scalar SingleCell.router.ppp[1].queue queueLength:last 0
scalar SingleCell.router.ppp[1].queue queueLength:max 0
scalar SingleCell.router.ppp[1].queue queueLength:timeavg 0
scalar SingleCell.router.ppp[1].queue queueBitLength:last 0
scalar SingleCell.router.ppp[1].queue queueBitLength:max 0
scalar SingleCell.router.ppp[1].queue queueBitLength:timeavg 0
scalar SingleCell.router.ppp[1].queue outgoingPackets:count 3034
scalar SingleCell.router.ppp[1].queue outgoingPacketLengths:sum 1650496
scalar SingleCell.router.ppp[1].queue incomingPackets:count 3034
scalar SingleCell.router.ppp[1].queue incomingPacketLengths:sum 1650496
scalar SingleCell.router.ppp[1].queue droppedPacketsQueueOverflow:count 0
scalar SingleCell.router.ppp[1].queue droppedPacketLengthsQueueOverflow:sum 0
scalar SingleCell.router.ppp[1].ppp transmissionState:timeavg 9.1019999999996615e-06
scalar SingleCell.router.ppp[1].ppp rxPkOk:count 0
scalar SingleCell.router.ppp[1].ppp rxPkOk:sum(packetBytes) 0
scalar SingleCell.router.ppp[1].ppp txPk:count 3034
scalar SingleCell.router.ppp[1].ppp txPk:sum(packetBytes) 227550
scalar SingleCell.router.ppp[1].ppp rcvdPkFromHl:count 3034
scalar SingleCell.router.ppp[1].ppp rcvdPkFromHl:sum(packetBytes) 206312
scalar SingleCell.router.ppp[1].ppp passedUpPk:count 0
scalar SingleCell.router.ppp[1].ppp passedUpPk:sum(packetBytes) 0
scalar SingleCell.router.ppp[1].ppp packetDropIncorrectlyReceived:count 0
scalar SingleCell.router.ppp[1].ppp packetDropIncorrectlyReceived:sum(packetBytes) 0
scalar SingleCell.router.ppp[1].ppp packetDropInterfaceDown:count 0
scalar SingleCell.router.ppp[1].ppp packetDropInterfaceDown:sum(packetBytes) 0
scalar SingleCell.router.ppp[1] packetDropInterfaceDown:count 0
scalar SingleCell.router.ppp[1] packetDropInterfaceDown:sum(packetBytes) 0
scalar SingleCell.router.ppp[1] packetDropNoCarrier:count 0
scalar SingleCell.router.ppp[1] packetDropNoCarrier:sum(packetBytes) 0
scalar SingleCell.router.ipv4.ip packetDropAddressResolutionFailed:count 0
scalar SingleCell.router.ipv4.ip packetDropAddressResolutionFailed:sum(packetBytes) 0
scalar SingleCell.router.ipv4.ip packetDropHopLimitReached:count 0
scalar SingleCell.router.ipv4.ip packetDropHopLimitReached:sum(packetBytes) 0
scalar SingleCell.router.ipv4.ip packetDropForwardingDisabled:count 0
scalar SingleCell.router.ipv4.ip packetDropForwardingDisabled:sum(packetBytes) 0
scalar SingleCell.router.ipv4.ip packetDropNoInterfaceFound:count 0
scalar SingleCell.router.ipv4.ip packetDropNoInterfaceFound:sum(packetBytes) 0
scalar SingleCell.router.ipv4.ip packetDropNoRouteFound:count 0
scalar SingleCell.router.ipv4.ip packetDropNoRouteFound:sum(packetBytes) 0
scalar SingleCell.router.ipv4.ip packetDropUndefined:count 0
scalar SingleCell.router.ipv4.ip packetDropUndefined:sum(packetBytes) 0
scalar SingleCell.router.ipv4.arp arpResolutionFailed:count 0
scalar SingleCell.router.ipv4.arp arpResolutionCompleted:count 0
scalar SingleCell.router.ipv4.arp arpResolutionInitiated:count 0
scalar SingleCell.router.ipv4.arp arpReplySent:count 0
scalar SingleCell.router.ipv4.arp arpReplySent:sum(packetBytes) 0
scalar SingleCell.router.ipv4.arp arpRequestSent:count 0
scalar SingleCell.router.ipv4.arp arpRequestSent:sum(packetBytes) 0
scalar SingleCell.pgw.lo[0].lo rcvdPkFromHl:count 0
scalar SingleCell.pgw.lo[0].lo rcvdPkFromHl:sum(packetBytes) 0
scalar SingleCell.pgw.lo[0].lo passedUpPk:count 0
scalar SingleCell.pgw.lo[0].lo passedUpPk:sum(packetBytes) 0
scalar SingleCell.pgw.lo[0] packetDropInterfaceDown:count 0
scalar SingleCell.pgw.lo[0] packetDropInterfaceDown:sum(packetBytes) 0
scalar SingleCell.pgw.lo[0] packetDropNoCarrier:count 0
scalar SingleCell.pgw.lo[0] packetDropNoCarrier:sum(packetBytes) 0
scalar SingleCell.pgw.ppp[0].queue queueLength:last 0
scalar SingleCell.pgw.ppp[0].queue queueLength:max 0
scalar SingleCell.pgw.ppp[0].queue queueLength:timeavg 0
scalar SingleCell.pgw.ppp[0].queue queueBitLength:last 0
scalar SingleCell.pgw.ppp[0].queue queueBitLength:max 0
scalar SingleCell.pgw.ppp[0].queue queueBitLength:timeavg 0
scalar SingleCell.pgw.ppp[0].queue outgoingPackets:count 3034
scalar SingleCell.pgw.ppp[0].queue outgoingPacketLengths:sum 2524288
scalar SingleCell.pgw.ppp[0].queue incomingPackets:count 3034
scalar SingleCell.pgw.ppp[0].queue incomingPacketLengths:sum 2524288
scalar SingleCell.pgw.ppp[0].queue droppedPacketsQueueOverflow:count 0
scalar SingleCell.pgw.ppp[0].queue droppedPacketLengthsQueueOverflow:sum 0
scalar SingleCell.pgw.ppp[0].ppp transmissionState:timeavg 1.347096000000018e-05
scalar SingleCell.pgw.ppp[0].ppp rxPkOk:count 0
scalar SingleCell.pgw.ppp[0].ppp rxPkOk:sum(packetBytes) 0
scalar SingleCell.pgw.ppp[0].ppp txPk:count 3034
scalar SingleCell.pgw.ppp[0].ppp txPk:sum(packetBytes) 336774
scalar SingleCell.pgw.ppp[0].ppp rcvdPkFromHl:count 3034
scalar SingleCell.pgw.ppp[0].ppp rcvdPkFromHl:sum(packetBytes) 315536
scalar SingleCell.pgw.ppp[0].ppp passedUpPk:count 0
scalar SingleCell.pgw.ppp[0].ppp passedUpPk:sum(packetBytes) 0
scalar SingleCell.pgw.ppp[0].ppp packetDropIncorrectlyReceived:count 0
scalar SingleCell.pgw.ppp[0].ppp packetDropIncorrectlyReceived:sum(packetBytes) 0
scalar SingleCell.pgw.ppp[0].ppp packetDropInterfaceDown:count 0
scalar SingleCell.pgw.ppp[0].ppp packetDropInterfaceDown:sum(packetBytes) 0
scalar SingleCell.pgw.ppp[0] packetDropInterfaceDown:count 0
scalar SingleCell.pgw.ppp[0] packetDropInterfaceDown:sum(packetBytes) 0
scalar SingleCell.pgw.ppp[0] packetDropNoCarrier:count 0
scalar SingleCell.pgw.ppp[0] packetDropNoCarrier:sum(packetBytes) 0
scalar SingleCell.pgw.ipv4.ip packetDropAddressResolutionFailed:count 0
scalar SingleCell.pgw.ipv4.ip packetDropAddressResolutionFailed:sum(packetBytes) 0
scalar SingleCell.pgw.ipv4.ip packetDropHopLimitReached:count 0
scalar SingleCell.pgw.ipv4.ip packetDropHopLimitReached:sum(packetBytes) 0
scalar SingleCell.pgw.ipv4.ip packetDropForwardingDisabled:count 0
scalar SingleCell.pgw.ipv4.ip packetDropForwardingDisabled:sum(packetBytes) 0
scalar SingleCell.pgw.ipv4.ip packetDropNoInterfaceFound:count 0
scalar SingleCell.pgw.ipv4.ip packetDropNoInterfaceFound:sum(packetBytes) 0
scalar SingleCell.pgw.ipv4.ip packetDropNoRouteFound:count 0
scalar SingleCell.pgw.ipv4.ip packetDropNoRouteFound:sum(packetBytes) 0
scalar SingleCell.pgw.ipv4.ip packetDropUndefined:count 0
scalar SingleCell.pgw.ipv4.ip packetDropUndefined:sum(packetBytes) 0
scalar SingleCell.pgw.ipv4.arp arpResolutionFailed:count 0
scalar SingleCell.pgw.ipv4.arp arpResolutionCompleted:count 0
scalar SingleCell.pgw.ipv4.arp arpResolutionInitiated:count 0
scalar SingleCell.pgw.ipv4.arp arpReplySent:count 0
scalar SingleCell.pgw.ipv4.arp arpReplySent:sum(packetBytes) 0
scalar SingleCell.pgw.ipv4.arp arpRequestSent:count 0
scalar SingleCell.pgw.ipv4.arp arpRequestSent:sum(packetBytes) 0
scalar SingleCell.pgw.pppIf.queue queueLength:last 0
scalar SingleCell.pgw.pppIf.queue queueLength:max 0
scalar SingleCell.pgw.pppIf.queue queueLength:timeavg 0
scalar SingleCell.pgw.pppIf.queue queueBitLength:last 0
scalar SingleCell.pgw.pppIf.queue queueBitLength:max 0
scalar SingleCell.pgw.pppIf.queue queueBitLength:timeavg 0
scalar SingleCell.pgw.pppIf.queue outgoingPackets:count 0
scalar SingleCell.pgw.pppIf.queue outgoingPacketLengths:sum 0
scalar SingleCell.pgw.pppIf.queue incomingPackets:count 0
scalar SingleCell.pgw.pppIf.queue incomingPacketLengths:sum 0
scalar SingleCell.pgw.pppIf.queue droppedPacketsQueueOverflow:count 0
scalar SingleCell.pgw.pppIf.queue droppedPacketLengthsQueueOverflow:sum 0
scalar SingleCell.pgw.pppIf.ppp transmissionState:timeavg 0
scalar SingleCell.pgw.pppIf.ppp rxPkOk:count 3034
scalar SingleCell.pgw.pppIf.ppp rxPkOk:sum(packetBytes) 227550
scalar SingleCell.pgw.pppIf.ppp txPk:count 0
scalar SingleCell.pgw.pppIf.ppp txPk:sum(packetBytes) 0
scalar SingleCell.pgw.pppIf.ppp rcvdPkFromHl:count 0
scalar SingleCell.pgw.pppIf.ppp rcvdPkFromHl:sum(packetBytes) 0
scalar SingleCell.pgw.pppIf.ppp passedUpPk:count 3034
scalar SingleCell.pgw.pppIf.ppp passedUpPk:sum(packetBytes) 206312
scalar SingleCell.pgw.pppIf.ppp packetDropIncorrectlyReceived:count 0
scalar SingleCell.pgw.pppIf.ppp packetDropIncorrectlyReceived:sum(packetBytes) 0
scalar SingleCell.pgw.pppIf.ppp packetDropInterfaceDown:count 0
scalar SingleCell.pgw.pppIf.ppp packetDropInterfaceDown:sum(packetBytes) 0
scalar SingleCell.pgw.pppIf packetDropInterfaceDown:count 0
scalar SingleCell.pgw.pppIf packetDropInterfaceDown:sum(packetBytes) 0
scalar SingleCell.pgw.pppIf packetDropNoCarrier:count 0
scalar SingleCell.pgw.pppIf packetDropNoCarrier:sum(packetBytes) 0
scalar SingleCell.pgw.udp packetReceived:count 0
scalar SingleCell.pgw.udp packetReceived:sum(packetBytes) 0
scalar SingleCell.pgw.udp packetSent:count 3034
scalar SingleCell.pgw.udp packetSent:sum(packetBytes) 254856
scalar SingleCell.pgw.udp passedUpPk:count 0
scalar SingleCell.pgw.udp droppedPkWrongPort:count 0
scalar SingleCell.pgw.udp droppedPkBadChecksum:count 0
scalar SingleCell.eNB.cellularNic.pdcp sentPacketToLowerLayer:count 3034
scalar SingleCell.eNB.cellularNic.pdcp sentPacketToLowerLayer:sum(packetBytes) 209346
scalar SingleCell.eNB.cellularNic.pdcp sentPacketToUpperLayer:count 0
scalar SingleCell.eNB.cellularNic.pdcp sentPacketToUpperLayer:sum(packetBytes) 0
scalar SingleCell.eNB.cellularNic.pdcp receivedPacketFromLowerLayer:count 0
scalar SingleCell.eNB.cellularNic.pdcp receivedPacketFromLowerLayer:sum(packetBytes) 0
scalar SingleCell.eNB.cellularNic.pdcp receivedPacketFromUpperLayer:count 3034
scalar SingleCell.eNB.cellularNic.pdcp receivedPacketFromUpperLayer:sum(packetBytes) 206312
scalar SingleCell.eNB.cellularNic.rlc.tm rlcPacketLossUl:mean -nan
scalar SingleCell.eNB.cellularNic.rlc.tm rlcPacketLossUl:sum 0
scalar SingleCell.eNB.cellularNic.rlc.tm rlcPacketLossDl:mean -nan
scalar SingleCell.eNB.cellularNic.rlc.tm rlcPacketLossDl:sum 0
scalar SingleCell.eNB.cellularNic.rlc.tm sentPacketToLowerLayer:count 0
scalar SingleCell.eNB.cellularNic.rlc.tm sentPacketToLowerLayer:sum(packetBytes) 0
scalar SingleCell.eNB.cellularNic.rlc.tm sentPacketToUpperLayer:count 0
scalar SingleCell.eNB.cellularNic.rlc.tm sentPacketToUpperLayer:sum(packetBytes) 0
scalar SingleCell.eNB.cellularNic.rlc.tm receivedPacketFromLowerLayer:count 0
scalar SingleCell.eNB.cellularNic.rlc.tm receivedPacketFromLowerLayer:sum(packetBytes) 0
scalar SingleCell.eNB.cellularNic.rlc.tm receivedPacketFromUpperLayer:count 0
scalar SingleCell.eNB.cellularNic.rlc.tm receivedPacketFromUpperLayer:sum(packetBytes) 0
scalar SingleCell.eNB.cellularNic.rlc.um rlcCellThroughputUl:simu5g_rateavg -nan
scalar SingleCell.eNB.cellularNic.rlc.um rlcCellThroughputDl:simu5g_rateavg 10537.741509980631
scalar SingleCell.eNB.cellularNic.rlc.um rlcPduThroughputUl:simu5g_rateavg -nan
scalar SingleCell.eNB.cellularNic.rlc.um rlcPduThroughputDl:simu5g_rateavg -nan
scalar SingleCell.eNB.cellularNic.rlc.um rlcPduDelayUl:mean -nan
scalar SingleCell.eNB.cellularNic.rlc.um rlcPduDelayDl:mean -nan
scalar SingleCell.eNB.cellularNic.rlc.um rlcThroughputUl:simu5g_rateavg -nan
scalar SingleCell.eNB.cellularNic.rlc.um rlcThroughputDl:simu5g_rateavg -nan
scalar SingleCell.eNB.cellularNic.rlc.um rlcDelayUl:mean -nan
scalar SingleCell.eNB.cellularNic.rlc.um rlcDelayDl:mean -nan
scalar SingleCell.eNB.cellularNic.rlc.um sentPacketToLowerLayer:count 3034
scalar SingleCell.eNB.cellularNic.rlc.um sentPacketToLowerLayer:sum(packetBytes) 215414
scalar SingleCell.eNB.cellularNic.rlc.um sentPacketToUpperLayer:count 0
scalar SingleCell.eNB.cellularNic.rlc.um sentPacketToUpperLayer:sum(packetBytes) 0
scalar SingleCell.eNB.cellularNic.rlc.um receivedPacketFromLowerLayer:count 0
scalar SingleCell.eNB.cellularNic.rlc.um receivedPacketFromLowerLayer:sum(packetBytes) 0
scalar SingleCell.eNB.cellularNic.rlc.um receivedPacketFromUpperLayer:count 3034
scalar SingleCell.eNB.cellularNic.rlc.um receivedPacketFromUpperLayer:sum(packetBytes) 209346
scalar SingleCell.eNB.cellularNic.rlc.am rlcPacketLossTotal:mean -nan
scalar SingleCell.eNB.cellularNic.rlc.am rlcCellThroughputUl:simu5g_rateavg -nan
scalar SingleCell.eNB.cellularNic.rlc.am rlcCellThroughputDl:simu5g_rateavg -nan
scalar SingleCell.eNB.cellularNic.rlc.am rlcPduThroughputUl:simu5g_rateavg -nan
scalar SingleCell.eNB.cellularNic.rlc.am rlcPduThroughputDl:simu5g_rateavg -nan
scalar SingleCell.eNB.cellularNic.rlc.am rlcPduDelayUl:mean -nan
scalar SingleCell.eNB.cellularNic.rlc.am rlcPduDelayDl:mean -nan
scalar SingleCell.eNB.cellularNic.rlc.am rlcThroughputUl:simu5g_rateavg -nan
scalar SingleCell.eNB.cellularNic.rlc.am rlcThroughputDl:simu5g_rateavg -nan
scalar SingleCell.eNB.cellularNic.rlc.am rlcDelayUl:mean -nan
scalar SingleCell.eNB.cellularNic.rlc.am rlcDelayDl:mean -nan
scalar SingleCell.eNB.cellularNic.rlc.am rlcPduPacketLossUl:mean -nan
scalar SingleCell.eNB.cellularNic.rlc.am rlcPduPacketLossDl:mean -nan
scalar SingleCell.eNB.cellularNic.rlc.am rlcPacketLossUl:mean -nan
scalar SingleCell.eNB.cellularNic.rlc.am rlcPacketLossDl:mean -nan
scalar SingleCell.eNB.cellularNic.rlc.am rlcCellPacketLossUl:mean -nan
scalar SingleCell.eNB.cellularNic.rlc.am rlcCellPacketLossDl:mean -nan
scalar SingleCell.eNB.cellularNic.mac avgServedBlocksUl:mean 0
scalar SingleCell.eNB.cellularNic.mac avgServedBlocksDl:mean 0.1719
scalar SingleCell.eNB.cellularNic.mac harqTxAttemptsUl:mean -nan
scalar SingleCell.eNB.cellularNic.mac harqTxAttemptsDl:mean -nan
scalar SingleCell.eNB.cellularNic.mac harqErrorRate_4th_Ul:mean -nan
scalar SingleCell.eNB.cellularNic.mac harqErrorRate_4th_Dl:mean -nan
scalar SingleCell.eNB.cellularNic.mac harqErrorRate_3rd_Ul:mean -nan
scalar SingleCell.eNB.cellularNic.mac harqErrorRate_3rd_Dl:mean -nan
scalar SingleCell.eNB.cellularNic.mac harqErrorRate_2nd_Ul:mean -nan
scalar SingleCell.eNB.cellularNic.mac harqErrorRate_2nd_Dl:mean -nan
scalar SingleCell.eNB.cellularNic.mac harqErrorRate_1st_Ul:mean -nan
scalar SingleCell.eNB.cellularNic.mac harqErrorRate_1st_Dl:mean -nan
scalar SingleCell.eNB.cellularNic.mac harqErrorRateUl:mean -nan
scalar SingleCell.eNB.cellularNic.mac harqErrorRateDl:mean -nan
scalar SingleCell.eNB.cellularNic.mac macCellPacketLossUl:mean -nan
scalar SingleCell.eNB.cellularNic.mac macCellPacketLossDl:mean 0
scalar SingleCell.eNB.cellularNic.mac macPacketLossUl:mean -nan
scalar SingleCell.eNB.cellularNic.mac macPacketLossDl:mean -nan
scalar SingleCell.eNB.cellularNic.mac macThroughputUl:simu5g_rateavg -nan
scalar SingleCell.eNB.cellularNic.mac macThroughputDl:simu5g_rateavg -nan
scalar SingleCell.eNB.cellularNic.mac macDelayUl:mean -nan
scalar SingleCell.eNB.cellularNic.mac macDelayDl:mean -nan
scalar SingleCell.eNB.cellularNic.mac macCellThroughputUl:simu5g_rateavg -nan
scalar SingleCell.eNB.cellularNic.mac macCellThroughputDl:simu5g_rateavg 11148.625075776599
scalar SingleCell.eNB.cellularNic.mac sentPacketToLowerLayer:count 3106
scalar SingleCell.eNB.cellularNic.mac sentPacketToLowerLayer:sum(packetBytes) 226738
scalar SingleCell.eNB.cellularNic.mac sentPacketToUpperLayer:count 3034
scalar SingleCell.eNB.cellularNic.mac sentPacketToUpperLayer:sum(packetBytes) 3034
scalar SingleCell.eNB.cellularNic.mac receivedPacketFromLowerLayer:count 19775
scalar SingleCell.eNB.cellularNic.mac receivedPacketFromLowerLayer:sum(packetBytes) 19775
scalar SingleCell.eNB.cellularNic.mac receivedPacketFromUpperLayer:count 6068
scalar SingleCell.eNB.cellularNic.mac receivedPacketFromUpperLayer:sum(packetBytes) 424760
scalar SingleCell.eNB.cellularNic.mac macBufferOverFlowD2D:mean -nan
scalar SingleCell.eNB.cellularNic.mac macBufferOverFlowUl:mean -nan
scalar SingleCell.eNB.cellularNic.mac macBufferOverFlowDl:mean -nan
scalar SingleCell.eNB.cellularNic.channelModel[0] measuredSinrUl:mean -nan
scalar SingleCell.eNB.cellularNic.channelModel[0] measuredSinrDl:mean -nan
scalar SingleCell.eNB.cellularNic.channelModel[0] rcvdSinrD2D:mean -nan
scalar SingleCell.eNB.cellularNic.channelModel[0] rcvdSinrUl:mean -nan
scalar SingleCell.eNB.cellularNic.channelModel[0] rcvdSinrDl:mean -nan
scalar SingleCell.eNB.cellularNic packetDropInterfaceDown:count 0
scalar SingleCell.eNB.cellularNic packetDropInterfaceDown:sum(packetBytes) 0
scalar SingleCell.eNB.cellularNic packetDropNoCarrier:count 0
scalar SingleCell.eNB.cellularNic packetDropNoCarrier:sum(packetBytes) 0
scalar SingleCell.eNB.pppIf.queue queueLength:last 0
scalar SingleCell.eNB.pppIf.queue queueLength:max 0
scalar SingleCell.eNB.pppIf.queue queueLength:timeavg 0
scalar SingleCell.eNB.pppIf.queue queueBitLength:last 0
scalar SingleCell.eNB.pppIf.queue queueBitLength:max 0
scalar SingleCell.eNB.pppIf.queue queueBitLength:timeavg 0
scalar SingleCell.eNB.pppIf.queue outgoingPackets:count 0
scalar SingleCell.eNB.pppIf.queue outgoingPacketLengths:sum 0
scalar SingleCell.eNB.pppIf.queue incomingPackets:count 0
scalar SingleCell.eNB.pppIf.queue incomingPacketLengths:sum 0
scalar SingleCell.eNB.pppIf.queue droppedPacketsQueueOverflow:count 0
scalar SingleCell.eNB.pppIf.queue droppedPacketLengthsQueueOverflow:sum 0
scalar SingleCell.eNB.pppIf.ppp transmissionState:timeavg 0
scalar SingleCell.eNB.pppIf.ppp rxPkOk:count 3034
scalar SingleCell.eNB.pppIf.ppp rxPkOk:sum(packetBytes) 336774
scalar SingleCell.eNB.pppIf.ppp txPk:count 0
scalar SingleCell.eNB.pppIf.ppp txPk:sum(packetBytes) 0
scalar SingleCell.eNB.pppIf.ppp rcvdPkFromHl:count 0
scalar SingleCell.eNB.pppIf.ppp rcvdPkFromHl:sum(packetBytes) 0
scalar SingleCell.eNB.pppIf.ppp passedUpPk:count 3034
scalar SingleCell.eNB.pppIf.ppp passedUpPk:sum(packetBytes) 315536
scalar SingleCell.eNB.pppIf.ppp packetDropIncorrectlyReceived:count 0
scalar SingleCell.eNB.pppIf.ppp packetDropIncorrectlyReceived:sum(packetBytes) 0
scalar SingleCell.eNB.pppIf.ppp packetDropInterfaceDown:count 0
scalar SingleCell.eNB.pppIf.ppp packetDropInterfaceDown:sum(packetBytes) 0
scalar SingleCell.eNB.pppIf packetDropInterfaceDown:count 0
scalar SingleCell.eNB.pppIf packetDropInterfaceDown:sum(packetBytes) 0
scalar SingleCell.eNB.pppIf packetDropNoCarrier:count 0
scalar SingleCell.eNB.pppIf packetDropNoCarrier:sum(packetBytes) 0
scalar SingleCell.eNB.pppMEHostIf.queue queueLength:last 0
scalar SingleCell.eNB.pppMEHostIf.queue queueLength:max 0
scalar SingleCell.eNB.pppMEHostIf.queue queueLength:timeavg 0
scalar SingleCell.eNB.pppMEHostIf.queue queueBitLength:last 0
scalar SingleCell.eNB.pppMEHostIf.queue queueBitLength:max 0
scalar SingleCell.eNB.pppMEHostIf.queue queueBitLength:timeavg 0
scalar SingleCell.eNB.pppMEHostIf.queue outgoingPackets:count 0
scalar SingleCell.eNB.pppMEHostIf.queue outgoingPacketLengths:sum 0
scalar SingleCell.eNB.pppMEHostIf.queue incomingPackets:count 0
scalar SingleCell.eNB.pppMEHostIf.queue incomingPacketLengths:sum 0
scalar SingleCell.eNB.pppMEHostIf.queue droppedPacketsQueueOverflow:count 0
scalar SingleCell.eNB.pppMEHostIf.queue droppedPacketLengthsQueueOverflow:sum 0
scalar SingleCell.eNB.pppMEHostIf.ppp transmissionState:timeavg 0
scalar SingleCell.eNB.pppMEHostIf.ppp rxPkOk:count 0
scalar SingleCell.eNB.pppMEHostIf.ppp rxPkOk:sum(packetBytes) 0
scalar SingleCell.eNB.pppMEHostIf.ppp txPk:count 0
scalar SingleCell.eNB.pppMEHostIf.ppp txPk:sum(packetBytes) 0
scalar SingleCell.eNB.pppMEHostIf.ppp rcvdPkFromHl:count 0
scalar SingleCell.eNB.pppMEHostIf.ppp rcvdPkFromHl:sum(packetBytes) 0
scalar SingleCell.eNB.pppMEHostIf.ppp passedUpPk:count 0
scalar SingleCell.eNB.pppMEHostIf.ppp passedUpPk:sum(packetBytes) 0
scalar SingleCell.eNB.pppMEHostIf.ppp packetDropIncorrectlyReceived:count 0
scalar SingleCell.eNB.pppMEHostIf.ppp packetDropIncorrectlyReceived:sum(packetBytes) 0
scalar SingleCell.eNB.pppMEHostIf.ppp packetDropInterfaceDown:count 0
scalar SingleCell.eNB.pppMEHostIf.ppp packetDropInterfaceDown:sum(packetBytes) 0
scalar SingleCell.eNB.pppMEHostIf packetDropInterfaceDown:count 0
scalar SingleCell.eNB.pppMEHostIf packetDropInterfaceDown:sum(packetBytes) 0
scalar SingleCell.eNB.pppMEHostIf packetDropNoCarrier:count 0
scalar SingleCell.eNB.pppMEHostIf packetDropNoCarrier:sum(packetBytes) 0
scalar SingleCell.eNB.ipv4.ip packetDropAddressResolutionFailed:count 0
scalar SingleCell.eNB.ipv4.ip packetDropAddressResolutionFailed:sum(packetBytes) 0
scalar SingleCell.eNB.ipv4.ip packetDropHopLimitReached:count 0
scalar SingleCell.eNB.ipv4.ip packetDropHopLimitReached:sum(packetBytes) 0
scalar SingleCell.eNB.ipv4.ip packetDropForwardingDisabled:count 0
scalar SingleCell.eNB.ipv4.ip packetDropForwardingDisabled:sum(packetBytes) 0
scalar SingleCell.eNB.ipv4.ip packetDropNoInterfaceFound:count 0
scalar SingleCell.eNB.ipv4.ip packetDropNoInterfaceFound:sum(packetBytes) 0
scalar SingleCell.eNB.ipv4.ip packetDropNoRouteFound:count 0
scalar SingleCell.eNB.ipv4.ip packetDropNoRouteFound:sum(packetBytes) 0
scalar SingleCell.eNB.ipv4.ip packetDropUndefined:count 0
scalar SingleCell.eNB.ipv4.ip packetDropUndefined:sum(packetBytes) 0
scalar SingleCell.eNB.ipv4.arp arpResolutionFailed:count 0
scalar SingleCell.eNB.ipv4.arp arpResolutionCompleted:count 0
scalar SingleCell.eNB.ipv4.arp arpResolutionInitiated:count 0
scalar SingleCell.eNB.ipv4.arp arpReplySent:count 0
scalar SingleCell.eNB.ipv4.arp arpReplySent:sum(packetBytes) 0
scalar SingleCell.eNB.ipv4.arp arpRequestSent:count 0
scalar SingleCell.eNB.ipv4.arp arpRequestSent:sum(packetBytes) 0
scalar SingleCell.eNB.udp packetReceived:count 3034
scalar SingleCell.eNB.udp packetReceived:sum(packetBytes) 254856
scalar SingleCell.eNB.udp packetSent:count 0
scalar SingleCell.eNB.udp packetSent:sum(packetBytes) 0
scalar SingleCell.eNB.udp passedUpPk:count 3034
scalar SingleCell.eNB.udp droppedPkWrongPort:count 0
scalar SingleCell.eNB.udp droppedPkBadChecksum:count 0
scalar SingleCell.ue[0].lo[0].lo rcvdPkFromHl:count 0
scalar SingleCell.ue[0].lo[0].lo rcvdPkFromHl:sum(packetBytes) 0
scalar SingleCell.ue[0].lo[0].lo passedUpPk:count 0
scalar SingleCell.ue[0].lo[0].lo passedUpPk:sum(packetBytes) 0
scalar SingleCell.ue[0].lo[0] packetDropInterfaceDown:count 0
scalar SingleCell.ue[0].lo[0] packetDropInterfaceDown:sum(packetBytes) 0
scalar SingleCell.ue[0].lo[0] packetDropNoCarrier:count 0
scalar SingleCell.ue[0].lo[0] packetDropNoCarrier:sum(packetBytes) 0
scalar SingleCell.ue[0].cellularNic.pdcp sentPacketToLowerLayer:count 0
scalar SingleCell.ue[0].cellularNic.pdcp sentPacketToLowerLayer:sum(packetBytes) 0
scalar SingleCell.ue[0].cellularNic.pdcp sentPacketToUpperLayer:count 654
scalar SingleCell.ue[0].cellularNic.pdcp sentPacketToUpperLayer:sum(packetBytes) 44472
scalar SingleCell.ue[0].cellularNic.pdcp receivedPacketFromLowerLayer:count 654
scalar SingleCell.ue[0].cellularNic.pdcp receivedPacketFromLowerLayer:sum(packetBytes) 45126
scalar SingleCell.ue[0].cellularNic.pdcp receivedPacketFromUpperLayer:count 0
scalar SingleCell.ue[0].cellularNic.pdcp receivedPacketFromUpperLayer:sum(packetBytes) 0
scalar SingleCell.ue[0].cellularNic.rlc.tm rlcPacketLossUl:mean -nan
scalar SingleCell.ue[0].cellularNic.rlc.tm rlcPacketLossUl:sum 0
scalar SingleCell.ue[0].cellularNic.rlc.tm rlcPacketLossDl:mean -nan
scalar SingleCell.ue[0].cellularNic.rlc.tm rlcPacketLossDl:sum 0
scalar SingleCell.ue[0].cellularNic.rlc.tm sentPacketToLowerLayer:count 0
scalar SingleCell.ue[0].cellularNic.rlc.tm sentPacketToLowerLayer:sum(packetBytes) 0
scalar SingleCell.ue[0].cellularNic.rlc.tm sentPacketToUpperLayer:count 0
scalar SingleCell.ue[0].cellularNic.rlc.tm sentPacketToUpperLayer:sum(packetBytes) 0
scalar SingleCell.ue[0].cellularNic.rlc.tm receivedPacketFromLowerLayer:count 0
scalar SingleCell.ue[0].cellularNic.rlc.tm receivedPacketFromLowerLayer:sum(packetBytes) 0
scalar SingleCell.ue[0].cellularNic.rlc.tm receivedPacketFromUpperLayer:count 0
scalar SingleCell.ue[0].cellularNic.rlc.tm receivedPacketFromUpperLayer:sum(packetBytes) 0
scalar SingleCell.ue[0].cellularNic.rlc.um rlcCellThroughputUl:simu5g_rateavg -nan
scalar SingleCell.ue[0].cellularNic.rlc.um rlcCellThroughputDl:simu5g_rateavg -nan
scalar SingleCell.ue[0].cellularNic.rlc.um rlcPduThroughputUl:simu5g_rateavg -nan
scalar SingleCell.ue[0].cellularNic.rlc.um rlcPduThroughputDl:simu5g_rateavg 0
scalar SingleCell.ue[0].cellularNic.rlc.um rlcPduDelayUl:mean -nan
scalar SingleCell.ue[0].cellularNic.rlc.um rlcPduDelayDl:mean 0.0042752293577981671
scalar SingleCell.ue[0].cellularNic.rlc.um rlcThroughputUl:simu5g_rateavg -nan
scalar SingleCell.ue[0].cellularNic.rlc.um rlcThroughputDl:simu5g_rateavg 2369.5328703982582
scalar SingleCell.ue[0].cellularNic.rlc.um rlcDelayUl:mean -nan
scalar SingleCell.ue[0].cellularNic.rlc.um rlcDelayDl:mean 0.0047422797519373859
scalar SingleCell.ue[0].cellularNic.rlc.um sentPacketToLowerLayer:count 0
scalar SingleCell.ue[0].cellularNic.rlc.um sentPacketToLowerLayer:sum(packetBytes) 0
scalar SingleCell.ue[0].cellularNic.rlc.um sentPacketToUpperLayer:count 654
scalar SingleCell.ue[0].cellularNic.rlc.um sentPacketToUpperLayer:sum(packetBytes) 45126
scalar SingleCell.ue[0].cellularNic.rlc.um receivedPacketFromLowerLayer:count 654
scalar SingleCell.ue[0].cellularNic.rlc.um receivedPacketFromLowerLayer:sum(packetBytes) 46434
scalar SingleCell.ue[0].cellularNic.rlc.um receivedPacketFromUpperLayer:count 0
scalar SingleCell.ue[0].cellularNic.rlc.um receivedPacketFromUpperLayer:sum(packetBytes) 0
scalar SingleCell.ue[0].cellularNic.rlc.am rlcPacketLossTotal:mean -nan
scalar SingleCell.ue[0].cellularNic.rlc.am rlcCellThroughputUl:simu5g_rateavg -nan
scalar SingleCell.ue[0].cellularNic.rlc.am rlcCellThroughputDl:simu5g_rateavg -nan
scalar SingleCell.ue[0].cellularNic.rlc.am rlcPduThroughputUl:simu5g_rateavg -nan
scalar SingleCell.ue[0].cellularNic.rlc.am rlcPduThroughputDl:simu5g_rateavg -nan
scalar SingleCell.ue[0].cellularNic.rlc.am rlcPduDelayUl:mean -nan
scalar SingleCell.ue[0].cellularNic.rlc.am rlcPduDelayDl:mean -nan
scalar SingleCell.ue[0].cellularNic.rlc.am rlcThroughputUl:simu5g_rateavg -nan
scalar SingleCell.ue[0].cellularNic.rlc.am rlcThroughputDl:simu5g_rateavg -nan
scalar SingleCell.ue[0].cellularNic.rlc.am rlcDelayUl:mean -nan
scalar SingleCell.ue[0].cellularNic.rlc.am rlcDelayDl:mean -nan
scalar SingleCell.ue[0].cellularNic.rlc.am rlcPduPacketLossUl:mean -nan
scalar SingleCell.ue[0].cellularNic.rlc.am rlcPduPacketLossDl:mean -nan
scalar SingleCell.ue[0].cellularNic.rlc.am rlcPacketLossUl:mean -nan
scalar SingleCell.ue[0].cellularNic.rlc.am rlcPacketLossDl:mean -nan
scalar SingleCell.ue[0].cellularNic.rlc.am rlcCellPacketLossUl:mean -nan
scalar SingleCell.ue[0].cellularNic.rlc.am rlcCellPacketLossDl:mean -nan
scalar SingleCell.ue[0].cellularNic.mac harqTxAttemptsUl:mean -nan
scalar SingleCell.ue[0].cellularNic.mac harqTxAttemptsDl:mean 1.0458715596330275
scalar SingleCell.ue[0].cellularNic.mac harqErrorRate_4th_Ul:mean -nan
scalar SingleCell.ue[0].cellularNic.mac harqErrorRate_4th_Dl:mean -nan
scalar SingleCell.ue[0].cellularNic.mac harqErrorRate_3rd_Ul:mean -nan
scalar SingleCell.ue[0].cellularNic.mac harqErrorRate_3rd_Dl:mean -nan
scalar SingleCell.ue[0].cellularNic.mac harqErrorRate_2nd_Ul:mean -nan
scalar SingleCell.ue[0].cellularNic.mac harqErrorRate_2nd_Dl:mean 0
scalar SingleCell.ue[0].cellularNic.mac harqErrorRate_1st_Ul:mean -nan
scalar SingleCell.ue[0].cellularNic.mac harqErrorRate_1st_Dl:mean 0.045871559633027525
scalar SingleCell.ue[0].cellularNic.mac harqErrorRateUl:mean -nan
scalar SingleCell.ue[0].cellularNic.mac harqErrorRateDl:mean 0.043859649122807015
scalar SingleCell.ue[0].cellularNic.mac macCellPacketLossUl:mean -nan
scalar SingleCell.ue[0].cellularNic.mac macCellPacketLossDl:mean -nan
scalar SingleCell.ue[0].cellularNic.mac macPacketLossUl:mean -nan
scalar SingleCell.ue[0].cellularNic.mac macPacketLossDl:mean 0
scalar SingleCell.ue[0].cellularNic.mac macThroughputUl:simu5g_rateavg -nan
scalar SingleCell.ue[0].cellularNic.mac macThroughputDl:simu5g_rateavg 2506.897094769166
scalar SingleCell.ue[0].cellularNic.mac macDelayUl:mean -nan
scalar SingleCell.ue[0].cellularNic.mac macDelayDl:mean 0.0042752293577981671
scalar SingleCell.ue[0].cellularNic.mac macCellThroughputUl:simu5g_rateavg -nan
scalar SingleCell.ue[0].cellularNic.mac macCellThroughputDl:simu5g_rateavg -nan
scalar SingleCell.ue[0].cellularNic.mac sentPacketToLowerLayer:count 684
scalar SingleCell.ue[0].cellularNic.mac sentPacketToLowerLayer:sum(packetBytes) 684
scalar SingleCell.ue[0].cellularNic.mac sentPacketToUpperLayer:count 654
scalar SingleCell.ue[0].cellularNic.mac sentPacketToUpperLayer:sum(packetBytes) 46434
scalar SingleCell.ue[0].cellularNic.mac receivedPacketFromLowerLayer:count 684
scalar SingleCell.ue[0].cellularNic.mac receivedPacketFromLowerLayer:sum(packetBytes) 49932
scalar SingleCell.ue[0].cellularNic.mac receivedPacketFromUpperLayer:count 0
scalar SingleCell.ue[0].cellularNic.mac receivedPacketFromUpperLayer:sum(packetBytes) 0
scalar SingleCell.ue[0].cellularNic.mac macBufferOverFlowD2D:mean -nan
scalar SingleCell.ue[0].cellularNic.mac macBufferOverFlowUl:mean -nan
scalar SingleCell.ue[0].cellularNic.mac macBufferOverFlowDl:mean -nan
scalar SingleCell.ue[0].cellularNic.phy distance:mean 381.67028126048177
scalar SingleCell.ue[0].cellularNic.phy averageCqiUl:mean -nan
scalar SingleCell.ue[0].cellularNic.phy averageCqiUl:count 0
scalar SingleCell.ue[0].cellularNic.phy averageCqiDl:mean 13.845029239766081
scalar SingleCell.ue[0].cellularNic.phy averageCqiDl:count 684
scalar SingleCell.ue[0].cellularNic.channelModel[0] measuredSinrUl:mean 19.536974432329679
scalar SingleCell.ue[0].cellularNic.channelModel[0] measuredSinrDl:mean 37.309167551502696
scalar SingleCell.ue[0].cellularNic.channelModel[0] rcvdSinrD2D:mean -nan
scalar SingleCell.ue[0].cellularNic.channelModel[0] rcvdSinrUl:mean -nan
scalar SingleCell.ue[0].cellularNic.channelModel[0] rcvdSinrDl:mean 35.328711217259091
scalar SingleCell.ue[0].cellularNic packetDropInterfaceDown:count 0
scalar SingleCell.ue[0].cellularNic packetDropInterfaceDown:sum(packetBytes) 0
scalar SingleCell.ue[0].cellularNic packetDropNoCarrier:count 0
scalar SingleCell.ue[0].cellularNic packetDropNoCarrier:sum(packetBytes) 0
scalar SingleCell.ue[0].encap pauseSent:count 0
scalar SingleCell.ue[0].encap pauseSent:sum 0
scalar SingleCell.ue[0].encap decapPk:count 0
scalar SingleCell.ue[0].encap decapPk:sum(packetBytes) 0
scalar SingleCell.ue[0].encap encapPk:count 0
scalar SingleCell.ue[0].encap encapPk:sum(packetBytes) 0
scalar SingleCell.ue[0].ipv4.ip packetDropAddressResolutionFailed:count 0
scalar SingleCell.ue[0].ipv4.ip packetDropAddressResolutionFailed:sum(packetBytes) 0
scalar SingleCell.ue[0].ipv4.ip packetDropHopLimitReached:count 0
scalar SingleCell.ue[0].ipv4.ip packetDropHopLimitReached:sum(packetBytes) 0
scalar SingleCell.ue[0].ipv4.ip packetDropForwardingDisabled:count 0
scalar SingleCell.ue[0].ipv4.ip packetDropForwardingDisabled:sum(packetBytes) 0
scalar SingleCell.ue[0].ipv4.ip packetDropNoInterfaceFound:count 0
scalar SingleCell.ue[0].ipv4.ip packetDropNoInterfaceFound:sum(packetBytes) 0
scalar SingleCell.ue[0].ipv4.ip packetDropNoRouteFound:count 0
scalar SingleCell.ue[0].ipv4.ip packetDropNoRouteFound:sum(packetBytes) 0
scalar SingleCell.ue[0].ipv4.ip packetDropUndefined:count 0
scalar SingleCell.ue[0].ipv4.ip packetDropUndefined:sum(packetBytes) 0
scalar SingleCell.ue[0].ipv4.arp arpResolutionFailed:count 0
scalar SingleCell.ue[0].ipv4.arp arpResolutionCompleted:count 0
scalar SingleCell.ue[0].ipv4.arp arpResolutionInitiated:count 0
scalar SingleCell.ue[0].ipv4.arp arpReplySent:count 0
scalar SingleCell.ue[0].ipv4.arp arpReplySent:sum(packetBytes) 0
scalar SingleCell.ue[0].ipv4.arp arpRequestSent:count 0
scalar SingleCell.ue[0].ipv4.arp arpRequestSent:sum(packetBytes) 0
scalar SingleCell.ue[0].udp packetReceived:count 654
scalar SingleCell.ue[0].udp packetReceived:sum(packetBytes) 31392
scalar SingleCell.ue[0].udp packetSent:count 0
scalar SingleCell.ue[0].udp packetSent:sum(packetBytes) 0
scalar SingleCell.ue[0].udp passedUpPk:count 654
scalar SingleCell.ue[0].udp droppedPkWrongPort:count 0
scalar SingleCell.ue[0].udp droppedPkBadChecksum:count 0
scalar SingleCell.ue[0].app[0] voipReceivedThroughput:simu5g_rateavg 1373.6422437091344
scalar SingleCell.ue[0].app[0] voipPlayoutLoss:mean 0.01759259259259259
scalar SingleCell.ue[0].app[0] voipJitter:mean 0.0060000000000000001
scalar SingleCell.ue[0].app[0] voipTaildropLoss:mean 0
scalar SingleCell.ue[0].app[0] voipMos:mean 4.0282652255827527
scalar SingleCell.ue[0].app[0] voipFrameDelay:mean 0.0047426385519373322
scalar SingleCell.ue[0].app[0] voipFrameLoss:mean 0
scalar SingleCell.ue[0].app[0] voipPlayoutDelay:mean 0.0044999999999999997
scalar SingleCell.ue[1].lo[0].lo rcvdPkFromHl:count 0
scalar SingleCell.ue[1].lo[0].lo rcvdPkFromHl:sum(packetBytes) 0
scalar SingleCell.ue[1].lo[0].lo passedUpPk:count 0
scalar SingleCell.ue[1].lo[0].lo passedUpPk:sum(packetBytes) 0
scalar SingleCell.ue[1].lo[0] packetDropInterfaceDown:count 0
scalar SingleCell.ue[1].lo[0] packetDropInterfaceDown:sum(packetBytes) 0
scalar SingleCell.ue[1].lo[0] packetDropNoCarrier:count 0
scalar SingleCell.ue[1].lo[0] packetDropNoCarrier:sum(packetBytes) 0
scalar SingleCell.ue[1].cellularNic.pdcp sentPacketToLowerLayer:count 0
scalar SingleCell.ue[1].cellularNic.pdcp sentPacketToLowerLayer:sum(packetBytes) 0
scalar SingleCell.ue[1].cellularNic.pdcp sentPacketToUpperLayer:count 615
scalar SingleCell.ue[1].cellularNic.pdcp sentPacketToUpperLayer:sum(packetBytes) 41820
scalar SingleCell.ue[1].cellularNic.pdcp receivedPacketFromLowerLayer:count 615
scalar SingleCell.ue[1].cellularNic.pdcp receivedPacketFromLowerLayer:sum(packetBytes) 42435
scalar SingleCell.ue[1].cellularNic.pdcp receivedPacketFromUpperLayer:count 0
scalar SingleCell.ue[1].cellularNic.pdcp receivedPacketFromUpperLayer:sum(packetBytes) 0
scalar SingleCell.ue[1].cellularNic.rlc.tm rlcPacketLossUl:mean -nan
scalar SingleCell.ue[1].cellularNic.rlc.tm rlcPacketLossUl:sum 0
scalar SingleCell.ue[1].cellularNic.rlc.tm rlcPacketLossDl:mean -nan
scalar SingleCell.ue[1].cellularNic.rlc.tm rlcPacketLossDl:sum 0
scalar SingleCell.ue[1].cellularNic.rlc.tm sentPacketToLowerLayer:count 0
scalar SingleCell.ue[1].cellularNic.rlc.tm sentPacketToLowerLayer:sum(packetBytes) 0
scalar SingleCell.ue[1].cellularNic.rlc.tm sentPacketToUpperLayer:count 0
scalar SingleCell.ue[1].cellularNic.rlc.tm sentPacketToUpperLayer:sum(packetBytes) 0
scalar SingleCell.ue[1].cellularNic.rlc.tm receivedPacketFromLowerLayer:count 0
scalar SingleCell.ue[1].cellularNic.rlc.tm receivedPacketFromLowerLayer:sum(packetBytes) 0
scalar SingleCell.ue[1].cellularNic.rlc.tm receivedPacketFromUpperLayer:count 0
scalar SingleCell.ue[1].cellularNic.rlc.tm receivedPacketFromUpperLayer:sum(packetBytes) 0
scalar SingleCell.ue[1].cellularNic.rlc.um rlcCellThroughputUl:simu5g_rateavg -nan
scalar SingleCell.ue[1].cellularNic.rlc.um rlcCellThroughputDl:simu5g_rateavg -nan
scalar SingleCell.ue[1].cellularNic.rlc.um rlcPduThroughputUl:simu5g_rateavg -nan
scalar SingleCell.ue[1].cellularNic.rlc.um rlcPduThroughputDl:simu5g_rateavg 0
scalar SingleCell.ue[1].cellularNic.rlc.um rlcPduDelayUl:mean -nan
scalar SingleCell.ue[1].cellularNic.rlc.um rlcPduDelayDl:mean 0.0041658536585365861
scalar SingleCell.ue[1].cellularNic.rlc.um rlcThroughputUl:simu5g_rateavg -nan
scalar SingleCell.ue[1].cellularNic.rlc.um rlcThroughputDl:simu5g_rateavg 1637.1205816559655
scalar SingleCell.ue[1].cellularNic.rlc.um rlcDelayUl:mean -nan
scalar SingleCell.ue[1].cellularNic.rlc.um rlcDelayDl:mean 0.0045712101642699319
scalar SingleCell.ue[1].cellularNic.rlc.um sentPacketToLowerLayer:count 0
scalar SingleCell.ue[1].cellularNic.rlc.um sentPacketToLowerLayer:sum(packetBytes) 0
scalar SingleCell.ue[1].cellularNic.rlc.um sentPacketToUpperLayer:count 615
scalar SingleCell.ue[1].cellularNic.rlc.um sentPacketToUpperLayer:sum(packetBytes) 42435
scalar SingleCell.ue[1].cellularNic.rlc.um receivedPacketFromLowerLayer:count 615
scalar SingleCell.ue[1].cellularNic.rlc.um receivedPacketFromLowerLayer:sum(packetBytes) 43665
scalar SingleCell.ue[1].cellularNic.rlc.um receivedPacketFromUpperLayer:count 0
scalar SingleCell.ue[1].cellularNic.rlc.um receivedPacketFromUpperLayer:sum(packetBytes) 0
scalar SingleCell.ue[1].cellularNic.rlc.am rlcPacketLossTotal:mean -nan
scalar SingleCell.ue[1].cellularNic.rlc.am rlcCellThroughputUl:simu5g_rateavg -nan
scalar SingleCell.ue[1].cellularNic.rlc.am rlcCellThroughputDl:simu5g_rateavg -nan
scalar SingleCell.ue[1].cellularNic.rlc.am rlcPduThroughputUl:simu5g_rateavg -nan
scalar SingleCell.ue[1].cellularNic.rlc.am rlcPduThroughputDl:simu5g_rateavg -nan
scalar SingleCell.ue[1].cellularNic.rlc.am rlcPduDelayUl:mean -nan
scalar SingleCell.ue[1].cellularNic.rlc.am rlcPduDelayDl:mean -nan
scalar SingleCell.ue[1].cellularNic.rlc.am rlcThroughputUl:simu5g_rateavg -nan
scalar SingleCell.ue[1].cellularNic.rlc.am rlcThroughputDl:simu5g_rateavg -nan
scalar SingleCell.ue[1].cellularNic.rlc.am rlcDelayUl:mean -nan
scalar SingleCell.ue[1].cellularNic.rlc.am rlcDelayDl:mean -nan
scalar SingleCell.ue[1].cellularNic.rlc.am rlcPduPacketLossUl:mean -nan
scalar SingleCell.ue[1].cellularNic.rlc.am rlcPduPacketLossDl:mean -nan
scalar SingleCell.ue[1].cellularNic.rlc.am rlcPacketLossUl:mean -nan
scalar SingleCell.ue[1].cellularNic.rlc.am rlcPacketLossDl:mean -nan
scalar SingleCell.ue[1].cellularNic.rlc.am rlcCellPacketLossUl:mean -nan
scalar SingleCell.ue[1].cellularNic.rlc.am rlcCellPacketLossDl:mean -nan
scalar SingleCell.ue[1].cellularNic.mac harqTxAttemptsUl:mean -nan
scalar SingleCell.ue[1].cellularNic.mac harqTxAttemptsDl:mean 1.0276422764227642
scalar SingleCell.ue[1].cellularNic.mac harqErrorRate_4th_Ul:mean -nan
scalar SingleCell.ue[1].cellularNic.mac harqErrorRate_4th_Dl:mean -nan
scalar SingleCell.ue[1].cellularNic.mac harqErrorRate_3rd_Ul:mean -nan
scalar SingleCell.ue[1].cellularNic.mac harqErrorRate_3rd_Dl:mean -nan
scalar SingleCell.ue[1].cellularNic.mac harqErrorRate_2nd_Ul:mean -nan
scalar SingleCell.ue[1].cellularNic.mac harqErrorRate_2nd_Dl:mean 0
scalar SingleCell.ue[1].cellularNic.mac harqErrorRate_1st_Ul:mean -nan
scalar SingleCell.ue[1].cellularNic.mac harqErrorRate_1st_Dl:mean 0.027642276422764227
scalar SingleCell.ue[1].cellularNic.mac harqErrorRateUl:mean -nan
scalar SingleCell.ue[1].cellularNic.mac harqErrorRateDl:mean 0.026898734177215191
scalar SingleCell.ue[1].cellularNic.mac macCellPacketLossUl:mean -nan
scalar SingleCell.ue[1].cellularNic.mac macCellPacketLossDl:mean -nan
scalar SingleCell.ue[1].cellularNic.mac macPacketLossUl:mean -nan
scalar SingleCell.ue[1].cellularNic.mac macPacketLossDl:mean 0
scalar SingleCell.ue[1].cellularNic.mac macThroughputUl:simu5g_rateavg -nan
scalar SingleCell.ue[1].cellularNic.mac macThroughputDl:simu5g_rateavg 1732.02612262153
scalar SingleCell.ue[1].cellularNic.mac macDelayUl:mean -nan
scalar SingleCell.ue[1].cellularNic.mac macDelayDl:mean 0.0041658536585365861
scalar SingleCell.ue[1].cellularNic.mac macCellThroughputUl:simu5g_rateavg -nan
scalar SingleCell.ue[1].cellularNic.mac macCellThroughputDl:simu5g_rateavg -nan
scalar SingleCell.ue[1].cellularNic.mac sentPacketToLowerLayer:count 632
scalar SingleCell.ue[1].cellularNic.mac sentPacketToLowerLayer:sum(packetBytes) 632
scalar SingleCell.ue[1].cellularNic.mac sentPacketToUpperLayer:count 615
scalar SingleCell.ue[1].cellularNic.mac sentPacketToUpperLayer:sum(packetBytes) 43665
scalar SingleCell.ue[1].cellularNic.mac receivedPacketFromLowerLayer:count 632
scalar SingleCell.ue[1].cellularNic.mac receivedPacketFromLowerLayer:sum(packetBytes) 46136
scalar SingleCell.ue[1].cellularNic.mac receivedPacketFromUpperLayer:count 0
scalar SingleCell.ue[1].cellularNic.mac receivedPacketFromUpperLayer:sum(packetBytes) 0
scalar SingleCell.ue[1].cellularNic.mac macBufferOverFlowD2D:mean -nan
scalar SingleCell.ue[1].cellularNic.mac macBufferOverFlowUl:mean -nan
scalar SingleCell.ue[1].cellularNic.mac macBufferOverFlowDl:mean -nan
scalar SingleCell.ue[1].cellularNic.phy distance:mean 360.557919424636
scalar SingleCell.ue[1].cellularNic.phy averageCqiUl:mean -nan
scalar SingleCell.ue[1].cellularNic.phy averageCqiUl:count 0
scalar SingleCell.ue[1].cellularNic.phy averageCqiDl:mean 13.140822784810126
scalar SingleCell.ue[1].cellularNic.phy averageCqiDl:count 632
scalar SingleCell.ue[1].cellularNic.channelModel[0] measuredSinrUl:mean 13.419762335752623
scalar SingleCell.ue[1].cellularNic.channelModel[0] measuredSinrDl:mean 32.848466581726768
scalar SingleCell.ue[1].cellularNic.channelModel[0] rcvdSinrD2D:mean -nan
scalar SingleCell.ue[1].cellularNic.channelModel[0] rcvdSinrUl:mean -nan
scalar SingleCell.ue[1].cellularNic.channelModel[0] rcvdSinrDl:mean 30.787139278437671
scalar SingleCell.ue[1].cellularNic packetDropInterfaceDown:count 0
scalar SingleCell.ue[1].cellularNic packetDropInterfaceDown:sum(packetBytes) 0
scalar SingleCell.ue[1].cellularNic packetDropNoCarrier:count 0
scalar SingleCell.ue[1].cellularNic packetDropNoCarrier:sum(packetBytes) 0
scalar SingleCell.ue[1].encap pauseSent:count 0
scalar SingleCell.ue[1].encap pauseSent:sum 0
scalar SingleCell.ue[1].encap decapPk:count 0
scalar SingleCell.ue[1].encap decapPk:sum(packetBytes) 0
scalar SingleCell.ue[1].encap encapPk:count 0
scalar SingleCell.ue[1].encap encapPk:sum(packetBytes) 0
scalar SingleCell.ue[1].ipv4.ip packetDropAddressResolutionFailed:count 0
scalar SingleCell.ue[1].ipv4.ip packetDropAddressResolutionFailed:sum(packetBytes) 0
scalar SingleCell.ue[1].ipv4.ip packetDropHopLimitReached:count 0
scalar SingleCell.ue[1].ipv4.ip packetDropHopLimitReached:sum(packetBytes) 0
scalar SingleCell.ue[1].ipv4.ip packetDropForwardingDisabled:count 0
scalar SingleCell.ue[1].ipv4.ip packetDropForwardingDisabled:sum(packetBytes) 0
scalar SingleCell.ue[1].ipv4.ip packetDropNoInterfaceFound:count 0
scalar SingleCell.ue[1].ipv4.ip packetDropNoInterfaceFound:sum(packetBytes) 0
scalar SingleCell.ue[1].ipv4.ip packetDropNoRouteFound:count 0
scalar SingleCell.ue[1].ipv4.ip packetDropNoRouteFound:sum(packetBytes) 0
scalar SingleCell.ue[1].ipv4.ip packetDropUndefined:count 0
scalar SingleCell.ue[1].ipv4.ip packetDropUndefined:sum(packetBytes) 0
scalar SingleCell.ue[1].ipv4.arp arpResolutionFailed:count 0
scalar SingleCell.ue[1].ipv4.arp arpResolutionCompleted:count 0
scalar SingleCell.ue[1].ipv4.arp arpResolutionInitiated:count 0
scalar SingleCell.ue[1].ipv4.arp arpReplySent:count 0
scalar SingleCell.ue[1].ipv4.arp arpReplySent:sum(packetBytes) 0
scalar SingleCell.ue[1].ipv4.arp arpRequestSent:count 0
scalar SingleCell.ue[1].ipv4.arp arpRequestSent:sum(packetBytes) 0
scalar SingleCell.ue[1].udp packetReceived:count 615
scalar SingleCell.ue[1].udp packetReceived:sum(packetBytes) 29520
scalar SingleCell.ue[1].udp packetSent:count 0
scalar SingleCell.ue[1].udp packetSent:sum(packetBytes) 0
scalar SingleCell.ue[1].udp passedUpPk:count 615
scalar SingleCell.ue[1].udp droppedPkWrongPort:count 0
scalar SingleCell.ue[1].udp droppedPkBadChecksum:count 0
scalar SingleCell.ue[1].app[0] voipReceivedThroughput:simu5g_rateavg 949.0554096556333
scalar SingleCell.ue[1].app[0] voipPlayoutLoss:mean 0.0053763440860215049
scalar SingleCell.ue[1].app[0] voipJitter:mean 0.0060000000000000001
scalar SingleCell.ue[1].app[0] voipTaildropLoss:mean 0
scalar SingleCell.ue[1].app[0] voipMos:mean 4.2821705433299968
scalar SingleCell.ue[1].app[0] voipFrameDelay:mean 0.0045715689642699692
scalar SingleCell.ue[1].app[0] voipFrameLoss:mean 0
scalar SingleCell.ue[1].app[0] voipPlayoutDelay:mean 0.0030000000000000005
scalar SingleCell.ue[2].lo[0].lo rcvdPkFromHl:count 0
scalar SingleCell.ue[2].lo[0].lo rcvdPkFromHl:sum(packetBytes) 0
scalar SingleCell.ue[2].lo[0].lo passedUpPk:count 0
scalar SingleCell.ue[2].lo[0].lo passedUpPk:sum(packetBytes) 0
scalar SingleCell.ue[2].lo[0] packetDropInterfaceDown:count 0
scalar SingleCell.ue[2].lo[0] packetDropInterfaceDown:sum(packetBytes) 0
scalar SingleCell.ue[2].lo[0] packetDropNoCarrier:count 0
scalar SingleCell.ue[2].lo[0] packetDropNoCarrier:sum(packetBytes) 0
scalar SingleCell.ue[2].cellularNic.pdcp sentPacketToLowerLayer:count 0
scalar SingleCell.ue[2].cellularNic.pdcp sentPacketToLowerLayer:sum(packetBytes) 0
scalar SingleCell.ue[2].cellularNic.pdcp sentPacketToUpperLayer:count 649
scalar SingleCell.ue[2].cellularNic.pdcp sentPacketToUpperLayer:sum(packetBytes) 44132
scalar SingleCell.ue[2].cellularNic.pdcp receivedPacketFromLowerLayer:count 649
scalar SingleCell.ue[2].cellularNic.pdcp receivedPacketFromLowerLayer:sum(packetBytes) 44781
scalar SingleCell.ue[2].cellularNic.pdcp receivedPacketFromUpperLayer:count 0
scalar SingleCell.ue[2].cellularNic.pdcp receivedPacketFromUpperLayer:sum(packetBytes) 0
scalar SingleCell.ue[2].cellularNic.rlc.tm rlcPacketLossUl:mean -nan
scalar SingleCell.ue[2].cellularNic.rlc.tm rlcPacketLossUl:sum 0
scalar SingleCell.ue[2].cellularNic.rlc.tm rlcPacketLossDl:mean -nan
scalar SingleCell.ue[2].cellularNic.rlc.tm rlcPacketLossDl:sum 0
scalar SingleCell.ue[2].cellularNic.rlc.tm sentPacketToLowerLayer:count 0
scalar SingleCell.ue[2].cellularNic.rlc.tm sentPacketToLowerLayer:sum(packetBytes) 0
scalar SingleCell.ue[2].cellularNic.rlc.tm sentPacketToUpperLayer:count 0
scalar SingleCell.ue[2].cellularNic.rlc.tm sentPacketToUpperLayer:sum(packetBytes) 0
scalar SingleCell.ue[2].cellularNic.rlc.tm receivedPacketFromLowerLayer:count 0
scalar SingleCell.ue[2].cellularNic.rlc.tm receivedPacketFromLowerLayer:sum(packetBytes) 0
scalar SingleCell.ue[2].cellularNic.rlc.tm receivedPacketFromUpperLayer:count 0
scalar SingleCell.ue[2].cellularNic.rlc.tm receivedPacketFromUpperLayer:sum(packetBytes) 0
scalar SingleCell.ue[2].cellularNic.rlc.um rlcCellThroughputUl:simu5g_rateavg -nan
scalar SingleCell.ue[2].cellularNic.rlc.um rlcCellThroughputDl:simu5g_rateavg -nan
scalar SingleCell.ue[2].cellularNic.rlc.um rlcPduThroughputUl:simu5g_rateavg -nan
scalar SingleCell.ue[2].cellularNic.rlc.um rlcPduThroughputDl:simu5g_rateavg 0
scalar SingleCell.ue[2].cellularNic.rlc.um rlcPduDelayUl:mean -nan
scalar SingleCell.ue[2].cellularNic.rlc.um rlcPduDelayDl:mean 0.0041664098613251165
scalar SingleCell.ue[2].cellularNic.rlc.um rlcThroughputUl:simu5g_rateavg -nan
scalar SingleCell.ue[2].cellularNic.rlc.um rlcThroughputDl:simu5g_rateavg 1811.5581189446641
scalar SingleCell.ue[2].cellularNic.rlc.um rlcDelayUl:mean -nan
scalar SingleCell.ue[2].cellularNic.rlc.um rlcDelayDl:mean 0.0044636223607072544
scalar SingleCell.ue[2].cellularNic.rlc.um sentPacketToLowerLayer:count 0
scalar SingleCell.ue[2].cellularNic.rlc.um sentPacketToLowerLayer:sum(packetBytes) 0
scalar SingleCell.ue[2].cellularNic.rlc.um sentPacketToUpperLayer:count 649
scalar SingleCell.ue[2].cellularNic.rlc.um sentPacketToUpperLayer:sum(packetBytes) 44781
scalar SingleCell.ue[2].cellularNic.rlc.um receivedPacketFromLowerLayer:count 649
scalar SingleCell.ue[2].cellularNic.rlc.um receivedPacketFromLowerLayer:sum(packetBytes) 46079
scalar SingleCell.ue[2].cellularNic.rlc.um receivedPacketFromUpperLayer:count 0
scalar SingleCell.ue[2].cellularNic.rlc.um receivedPacketFromUpperLayer:sum(packetBytes) 0
scalar SingleCell.ue[2].cellularNic.rlc.am rlcPacketLossTotal:mean -nan
scalar SingleCell.ue[2].cellularNic.rlc.am rlcCellThroughputUl:simu5g_rateavg -nan
scalar SingleCell.ue[2].cellularNic.rlc.am rlcCellThroughputDl:simu5g_rateavg -nan
scalar SingleCell.ue[2].cellularNic.rlc.am rlcPduThroughputUl:simu5g_rateavg -nan
scalar SingleCell.ue[2].cellularNic.rlc.am rlcPduThroughputDl:simu5g_rateavg -nan
scalar SingleCell.ue[2].cellularNic.rlc.am rlcPduDelayUl:mean -nan
scalar SingleCell.ue[2].cellularNic.rlc.am rlcPduDelayDl:mean -nan
scalar SingleCell.ue[2].cellularNic.rlc.am rlcThroughputUl:simu5g_rateavg -nan
scalar SingleCell.ue[2].cellularNic.rlc.am rlcThroughputDl:simu5g_rateavg -nan
scalar SingleCell.ue[2].cellularNic.rlc.am rlcDelayUl:mean -nan
scalar SingleCell.ue[2].cellularNic.rlc.am rlcDelayDl:mean -nan
scalar SingleCell.ue[2].cellularNic.rlc.am rlcPduPacketLossUl:mean -nan
scalar SingleCell.ue[2].cellularNic.rlc.am rlcPduPacketLossDl:mean -nan
scalar SingleCell.ue[2].cellularNic.rlc.am rlcPacketLossUl:mean -nan
scalar SingleCell.ue[2].cellularNic.rlc.am rlcPacketLossDl:mean -nan
scalar SingleCell.ue[2].cellularNic.rlc.am rlcCellPacketLossUl:mean -nan
scalar SingleCell.ue[2].cellularNic.rlc.am rlcCellPacketLossDl:mean -nan
scalar SingleCell.ue[2].cellularNic.mac harqTxAttemptsUl:mean -nan
scalar SingleCell.ue[2].cellularNic.mac harqTxAttemptsDl:mean 1.0277349768875192
scalar SingleCell.ue[2].cellularNic.mac harqErrorRate_4th_Ul:mean -nan
scalar SingleCell.ue[2].cellularNic.mac harqErrorRate_4th_Dl:mean -nan
scalar SingleCell.ue[2].cellularNic.mac harqErrorRate_3rd_Ul:mean -nan
scalar SingleCell.ue[2].cellularNic.mac harqErrorRate_3rd_Dl:mean -nan
scalar SingleCell.ue[2].cellularNic.mac harqErrorRate_2nd_Ul:mean -nan
scalar SingleCell.ue[2].cellularNic.mac harqErrorRate_2nd_Dl:mean 0
scalar SingleCell.ue[2].cellularNic.mac harqErrorRate_1st_Ul:mean -nan
scalar SingleCell.ue[2].cellularNic.mac harqErrorRate_1st_Dl:mean 0.027734976887519261
scalar SingleCell.ue[2].cellularNic.mac harqErrorRateUl:mean -nan
scalar SingleCell.ue[2].cellularNic.mac harqErrorRateDl:mean 0.026986506746626688
scalar SingleCell.ue[2].cellularNic.mac macCellPacketLossUl:mean -nan
scalar SingleCell.ue[2].cellularNic.mac macCellPacketLossDl:mean -nan
scalar SingleCell.ue[2].cellularNic.mac macPacketLossUl:mean -nan
scalar SingleCell.ue[2].cellularNic.mac macPacketLossDl:mean 0
scalar SingleCell.ue[2].cellularNic.mac macThroughputUl:simu5g_rateavg -nan
scalar SingleCell.ue[2].cellularNic.mac macThroughputDl:simu5g_rateavg 1916.5759809124729
scalar SingleCell.ue[2].cellularNic.mac macDelayUl:mean -nan
scalar SingleCell.ue[2].cellularNic.mac macDelayDl:mean 0.0041664098613251165
scalar SingleCell.ue[2].cellularNic.mac macCellThroughputUl:simu5g_rateavg -nan
scalar SingleCell.ue[2].cellularNic.mac macCellThroughputDl:simu5g_rateavg -nan
scalar SingleCell.ue[2].cellularNic.mac sentPacketToLowerLayer:count 667
scalar SingleCell.ue[2].cellularNic.mac sentPacketToLowerLayer:sum(packetBytes) 667
scalar SingleCell.ue[2].cellularNic.mac sentPacketToUpperLayer:count 649
scalar SingleCell.ue[2].cellularNic.mac sentPacketToUpperLayer:sum(packetBytes) 46079
scalar SingleCell.ue[2].cellularNic.mac receivedPacketFromLowerLayer:count 667
scalar SingleCell.ue[2].cellularNic.mac receivedPacketFromLowerLayer:sum(packetBytes) 48691
scalar SingleCell.ue[2].cellularNic.mac receivedPacketFromUpperLayer:count 0
scalar SingleCell.ue[2].cellularNic.mac receivedPacketFromUpperLayer:sum(packetBytes) 0
scalar SingleCell.ue[2].cellularNic.mac macBufferOverFlowD2D:mean -nan
scalar SingleCell.ue[2].cellularNic.mac macBufferOverFlowUl:mean -nan
scalar SingleCell.ue[2].cellularNic.mac macBufferOverFlowDl:mean -nan
scalar SingleCell.ue[2].cellularNic.phy distance:mean 257.51801832445585
scalar SingleCell.ue[2].cellularNic.phy averageCqiUl:mean -nan
scalar SingleCell.ue[2].cellularNic.phy averageCqiUl:count 0
scalar SingleCell.ue[2].cellularNic.phy averageCqiDl:mean 13.347826086956522
scalar SingleCell.ue[2].cellularNic.phy averageCqiDl:count 667
scalar SingleCell.ue[2].cellularNic.channelModel[0] measuredSinrUl:mean 34.769372545776669
scalar SingleCell.ue[2].cellularNic.channelModel[0] measuredSinrDl:mean 37.162455163210552
scalar SingleCell.ue[2].cellularNic.channelModel[0] rcvdSinrD2D:mean -nan
scalar SingleCell.ue[2].cellularNic.channelModel[0] rcvdSinrUl:mean -nan
scalar SingleCell.ue[2].cellularNic.channelModel[0] rcvdSinrDl:mean 33.893099509467028
scalar SingleCell.ue[2].cellularNic packetDropInterfaceDown:count 0
scalar SingleCell.ue[2].cellularNic packetDropInterfaceDown:sum(packetBytes) 0
scalar SingleCell.ue[2].cellularNic packetDropNoCarrier:count 0
scalar SingleCell.ue[2].cellularNic packetDropNoCarrier:sum(packetBytes) 0
scalar SingleCell.ue[2].encap pauseSent:count 0
scalar SingleCell.ue[2].encap pauseSent:sum 0
scalar SingleCell.ue[2].encap decapPk:count 0
scalar SingleCell.ue[2].encap decapPk:sum(packetBytes) 0
scalar SingleCell.ue[2].encap encapPk:count 0
scalar SingleCell.ue[2].encap encapPk:sum(packetBytes) 0
scalar SingleCell.ue[2].ipv4.ip packetDropAddressResolutionFailed:count 0
scalar SingleCell.ue[2].ipv4.ip packetDropAddressResolutionFailed:sum(packetBytes) 0
scalar SingleCell.ue[2].ipv4.ip packetDropHopLimitReached:count 0
scalar SingleCell.ue[2].ipv4.ip packetDropHopLimitReached:sum(packetBytes) 0
scalar SingleCell.ue[2].ipv4.ip packetDropForwardingDisabled:count 0
scalar SingleCell.ue[2].ipv4.ip packetDropForwardingDisabled:sum(packetBytes) 0
scalar SingleCell.ue[2].ipv4.ip packetDropNoInterfaceFound:count 0
scalar SingleCell.ue[2].ipv4.ip packetDropNoInterfaceFound:sum(packetBytes) 0
scalar SingleCell.ue[2].ipv4.ip packetDropNoRouteFound:count 0
scalar SingleCell.ue[2].ipv4.ip packetDropNoRouteFound:sum(packetBytes) 0
scalar SingleCell.ue[2].ipv4.ip packetDropUndefined:count 0
scalar SingleCell.ue[2].ipv4.ip packetDropUndefined:sum(packetBytes) 0
scalar SingleCell.ue[2].ipv4.arp arpResolutionFailed:count 0
scalar SingleCell.ue[2].ipv4.arp arpResolutionCompleted:count 0
scalar SingleCell.ue[2].ipv4.arp arpResolutionInitiated:count 0
scalar SingleCell.ue[2].ipv4.arp arpReplySent:count 0
scalar SingleCell.ue[2].ipv4.arp arpReplySent:sum(packetBytes) 0
scalar SingleCell.ue[2].ipv4.arp arpRequestSent:count 0
scalar SingleCell.ue[2].ipv4.arp arpRequestSent:sum(packetBytes) 0
scalar SingleCell.ue[2].udp packetReceived:count 649
scalar SingleCell.ue[2].udp packetReceived:sum(packetBytes) 31152
scalar SingleCell.ue[2].udp packetSent:count 0
scalar SingleCell.ue[2].udp packetSent:sum(packetBytes) 0
scalar SingleCell.ue[2].udp passedUpPk:count 649
scalar SingleCell.ue[2].udp droppedPkWrongPort:count 0
scalar SingleCell.ue[2].udp droppedPkBadChecksum:count 0
scalar SingleCell.ue[2].app[0] voipReceivedThroughput:simu5g_rateavg 1050.1786196780661
scalar SingleCell.ue[2].app[0] voipPlayoutLoss:mean 0.012259132948788122
scalar SingleCell.ue[2].app[0] voipJitter:mean 0.006000000000000001
scalar SingleCell.ue[2].app[0] voipTaildropLoss:mean 0
scalar SingleCell.ue[2].app[0] voipMos:mean 4.1357303121871336
scalar SingleCell.ue[2].app[0] voipFrameDelay:mean 0.004463981160707225
scalar SingleCell.ue[2].app[0] voipFrameLoss:mean 0
scalar SingleCell.ue[2].app[0] voipPlayoutDelay:mean 0.0013846153846153847
scalar SingleCell.ue[3].lo[0].lo rcvdPkFromHl:count 0
scalar SingleCell.ue[3].lo[0].lo rcvdPkFromHl:sum(packetBytes) 0
scalar SingleCell.ue[3].lo[0].lo passedUpPk:count 0
scalar SingleCell.ue[3].lo[0].lo passedUpPk:sum(packetBytes) 0
scalar SingleCell.ue[3].lo[0] packetDropInterfaceDown:count 0
scalar SingleCell.ue[3].lo[0] packetDropInterfaceDown:sum(packetBytes) 0
scalar SingleCell.ue[3].lo[0] packetDropNoCarrier:count 0
scalar SingleCell.ue[3].lo[0] packetDropNoCarrier:sum(packetBytes) 0
scalar SingleCell.ue[3].cellularNic.pdcp sentPacketToLowerLayer:count 0
scalar SingleCell.ue[3].cellularNic.pdcp sentPacketToLowerLayer:sum(packetBytes) 0
scalar SingleCell.ue[3].cellularNic.pdcp sentPacketToUpperLayer:count 479
scalar SingleCell.ue[3].cellularNic.pdcp sentPacketToUpperLayer:sum(packetBytes) 32572
scalar SingleCell.ue[3].cellularNic.pdcp receivedPacketFromLowerLayer:count 479
scalar SingleCell.ue[3].cellularNic.pdcp receivedPacketFromLowerLayer:sum(packetBytes) 33051
scalar SingleCell.ue[3].cellularNic.pdcp receivedPacketFromUpperLayer:count 0
scalar SingleCell.ue[3].cellularNic.pdcp receivedPacketFromUpperLayer:sum(packetBytes) 0
scalar SingleCell.ue[3].cellularNic.rlc.tm rlcPacketLossUl:mean -nan
scalar SingleCell.ue[3].cellularNic.rlc.tm rlcPacketLossUl:sum 0
scalar SingleCell.ue[3].cellularNic.rlc.tm rlcPacketLossDl:mean -nan
scalar SingleCell.ue[3].cellularNic.rlc.tm rlcPacketLossDl:sum 0
scalar SingleCell.ue[3].cellularNic.rlc.tm sentPacketToLowerLayer:count 0
scalar SingleCell.ue[3].cellularNic.rlc.tm sentPacketToLowerLayer:sum(packetBytes) 0
scalar SingleCell.ue[3].cellularNic.rlc.tm sentPacketToUpperLayer:count 0
scalar SingleCell.ue[3].cellularNic.rlc.tm sentPacketToUpperLayer:sum(packetBytes) 0
scalar SingleCell.ue[3].cellularNic.rlc.tm receivedPacketFromLowerLayer:count 0
scalar SingleCell.ue[3].cellularNic.rlc.tm receivedPacketFromLowerLayer:sum(packetBytes) 0
scalar SingleCell.ue[3].cellularNic.rlc.tm receivedPacketFromUpperLayer:count 0
scalar SingleCell.ue[3].cellularNic.rlc.tm receivedPacketFromUpperLayer:sum(packetBytes) 0
scalar SingleCell.ue[3].cellularNic.rlc.um rlcCellThroughputUl:simu5g_rateavg -nan
scalar SingleCell.ue[3].cellularNic.rlc.um rlcCellThroughputDl:simu5g_rateavg -nan
scalar SingleCell.ue[3].cellularNic.rlc.um rlcPduThroughputUl:simu5g_rateavg -nan
scalar SingleCell.ue[3].cellularNic.rlc.um rlcPduThroughputDl:simu5g_rateavg 0
scalar SingleCell.ue[3].cellularNic.rlc.um rlcPduDelayUl:mean -nan
scalar SingleCell.ue[3].cellularNic.rlc.um rlcPduDelayDl:mean 0.004025052192066809
scalar SingleCell.ue[3].cellularNic.rlc.um rlcThroughputUl:simu5g_rateavg -nan
scalar SingleCell.ue[3].cellularNic.rlc.um rlcThroughputDl:simu5g_rateavg 1943.9708621639838
scalar SingleCell.ue[3].cellularNic.rlc.um rlcDelayUl:mean -nan
scalar SingleCell.ue[3].cellularNic.rlc.um rlcDelayDl:mean 0.0044606582023799602
scalar SingleCell.ue[3].cellularNic.rlc.um sentPacketToLowerLayer:count 0
scalar SingleCell.ue[3].cellularNic.rlc.um sentPacketToLowerLayer:sum(packetBytes) 0
scalar SingleCell.ue[3].cellularNic.rlc.um sentPacketToUpperLayer:count 479
scalar SingleCell.ue[3].cellularNic.rlc.um sentPacketToUpperLayer:sum(packetBytes) 33051
scalar SingleCell.ue[3].cellularNic.rlc.um receivedPacketFromLowerLayer:count 479
scalar SingleCell.ue[3].cellularNic.rlc.um receivedPacketFromLowerLayer:sum(packetBytes) 34009
scalar SingleCell.ue[3].cellularNic.rlc.um receivedPacketFromUpperLayer:count 0
scalar SingleCell.ue[3].cellularNic.rlc.um receivedPacketFromUpperLayer:sum(packetBytes) 0
scalar SingleCell.ue[3].cellularNic.rlc.am rlcPacketLossTotal:mean -nan
scalar SingleCell.ue[3].cellularNic.rlc.am rlcCellThroughputUl:simu5g_rateavg -nan
scalar SingleCell.ue[3].cellularNic.rlc.am rlcCellThroughputDl:simu5g_rateavg -nan
scalar SingleCell.ue[3].cellularNic.rlc.am rlcPduThroughputUl:simu5g_rateavg -nan
scalar SingleCell.ue[3].cellularNic.rlc.am rlcPduThroughputDl:simu5g_rateavg -nan
scalar SingleCell.ue[3].cellularNic.rlc.am rlcPduDelayUl:mean -nan
scalar SingleCell.ue[3].cellularNic.rlc.am rlcPduDelayDl:mean -nan
scalar SingleCell.ue[3].cellularNic.rlc.am rlcThroughputUl:simu5g_rateavg -nan
scalar SingleCell.ue[3].cellularNic.rlc.am rlcThroughputDl:simu5g_rateavg -nan
scalar SingleCell.ue[3].cellularNic.rlc.am rlcDelayUl:mean -nan
scalar SingleCell.ue[3].cellularNic.rlc.am rlcDelayDl:mean -nan
scalar SingleCell.ue[3].cellularNic.rlc.am rlcPduPacketLossUl:mean -nan
scalar SingleCell.ue[3].cellularNic.rlc.am rlcPduPacketLossDl:mean -nan
scalar SingleCell.ue[3].cellularNic.rlc.am rlcPacketLossUl:mean -nan
scalar SingleCell.ue[3].cellularNic.rlc.am rlcPacketLossDl:mean -nan
scalar SingleCell.ue[3].cellularNic.rlc.am rlcCellPacketLossUl:mean -nan
scalar SingleCell.ue[3].cellularNic.rlc.am rlcCellPacketLossDl:mean -nan
scalar SingleCell.ue[3].cellularNic.mac harqTxAttemptsUl:mean -nan
scalar SingleCell.ue[3].cellularNic.mac harqTxAttemptsDl:mean 1.0041753653444676
scalar SingleCell.ue[3].cellularNic.mac harqErrorRate_4th_Ul:mean -nan
scalar SingleCell.ue[3].cellularNic.mac harqErrorRate_4th_Dl:mean -nan
scalar SingleCell.ue[3].cellularNic.mac harqErrorRate_3rd_Ul:mean -nan
scalar SingleCell.ue[3].cellularNic.mac harqErrorRate_3rd_Dl:mean -nan
scalar SingleCell.ue[3].cellularNic.mac harqErrorRate_2nd_Ul:mean -nan
scalar SingleCell.ue[3].cellularNic.mac harqErrorRate_2nd_Dl:mean 0
scalar SingleCell.ue[3].cellularNic.mac harqErrorRate_1st_Ul:mean -nan
scalar SingleCell.ue[3].cellularNic.mac harqErrorRate_1st_Dl:mean 0.0041753653444676405
scalar SingleCell.ue[3].cellularNic.mac harqErrorRateUl:mean -nan
scalar SingleCell.ue[3].cellularNic.mac harqErrorRateDl:mean 0.0041580041580041582
scalar SingleCell.ue[3].cellularNic.mac macCellPacketLossUl:mean -nan
scalar SingleCell.ue[3].cellularNic.mac macCellPacketLossDl:mean -nan
scalar SingleCell.ue[3].cellularNic.mac macPacketLossUl:mean -nan
scalar SingleCell.ue[3].cellularNic.mac macPacketLossDl:mean 0
scalar SingleCell.ue[3].cellularNic.mac macThroughputUl:simu5g_rateavg -nan
scalar SingleCell.ue[3].cellularNic.mac macThroughputDl:simu5g_rateavg 2056.6648251879828
scalar SingleCell.ue[3].cellularNic.mac macDelayUl:mean -nan
scalar SingleCell.ue[3].cellularNic.mac macDelayDl:mean 0.004025052192066809
scalar SingleCell.ue[3].cellularNic.mac macCellThroughputUl:simu5g_rateavg -nan
scalar SingleCell.ue[3].cellularNic.mac macCellThroughputDl:simu5g_rateavg -nan
scalar SingleCell.ue[3].cellularNic.mac sentPacketToLowerLayer:count 481
scalar SingleCell.ue[3].cellularNic.mac sentPacketToLowerLayer:sum(packetBytes) 481
scalar SingleCell.ue[3].cellularNic.mac sentPacketToUpperLayer:count 479
scalar SingleCell.ue[3].cellularNic.mac sentPacketToUpperLayer:sum(packetBytes) 34009
scalar SingleCell.ue[3].cellularNic.mac receivedPacketFromLowerLayer:count 481
scalar SingleCell.ue[3].cellularNic.mac receivedPacketFromLowerLayer:sum(packetBytes) 35113
scalar SingleCell.ue[3].cellularNic.mac receivedPacketFromUpperLayer:count 0
scalar SingleCell.ue[3].cellularNic.mac receivedPacketFromUpperLayer:sum(packetBytes) 0
scalar SingleCell.ue[3].cellularNic.mac macBufferOverFlowD2D:mean -nan
scalar SingleCell.ue[3].cellularNic.mac macBufferOverFlowUl:mean -nan
scalar SingleCell.ue[3].cellularNic.mac macBufferOverFlowDl:mean -nan
scalar SingleCell.ue[3].cellularNic.phy distance:mean 331.57484201349411
scalar SingleCell.ue[3].cellularNic.phy averageCqiUl:mean -nan
scalar SingleCell.ue[3].cellularNic.phy averageCqiUl:count 0
scalar SingleCell.ue[3].cellularNic.phy averageCqiDl:mean 14.018711018711018
scalar SingleCell.ue[3].cellularNic.phy averageCqiDl:count 481
scalar SingleCell.ue[3].cellularNic.channelModel[0] measuredSinrUl:mean 21.929898878576605
scalar SingleCell.ue[3].cellularNic.channelModel[0] measuredSinrDl:mean 40.126116023645359
scalar SingleCell.ue[3].cellularNic.channelModel[0] rcvdSinrD2D:mean -nan
scalar SingleCell.ue[3].cellularNic.channelModel[0] rcvdSinrUl:mean -nan
scalar SingleCell.ue[3].cellularNic.channelModel[0] rcvdSinrDl:mean 39.45372787854194
scalar SingleCell.ue[3].cellularNic packetDropInterfaceDown:count 0
scalar SingleCell.ue[3].cellularNic packetDropInterfaceDown:sum(packetBytes) 0
scalar SingleCell.ue[3].cellularNic packetDropNoCarrier:count 0
scalar SingleCell.ue[3].cellularNic packetDropNoCarrier:sum(packetBytes) 0
scalar SingleCell.ue[3].encap pauseSent:count 0
scalar SingleCell.ue[3].encap pauseSent:sum 0
scalar SingleCell.ue[3].encap decapPk:count 0
scalar SingleCell.ue[3].encap decapPk:sum(packetBytes) 0
scalar SingleCell.ue[3].encap encapPk:count 0
scalar SingleCell.ue[3].encap encapPk:sum(packetBytes) 0
scalar SingleCell.ue[3].ipv4.ip packetDropAddressResolutionFailed:count 0
scalar SingleCell.ue[3].ipv4.ip packetDropAddressResolutionFailed:sum(packetBytes) 0
scalar SingleCell.ue[3].ipv4.ip packetDropHopLimitReached:count 0
scalar SingleCell.ue[3].ipv4.ip packetDropHopLimitReached:sum(packetBytes) 0
scalar SingleCell.ue[3].ipv4.ip packetDropForwardingDisabled:count 0
scalar SingleCell.ue[3].ipv4.ip packetDropForwardingDisabled:sum(packetBytes) 0
scalar SingleCell.ue[3].ipv4.ip packetDropNoInterfaceFound:count 0
scalar SingleCell.ue[3].ipv4.ip packetDropNoInterfaceFound:sum(packetBytes) 0
scalar SingleCell.ue[3].ipv4.ip packetDropNoRouteFound:count 0
scalar SingleCell.ue[3].ipv4.ip packetDropNoRouteFound:sum(packetBytes) 0
scalar SingleCell.ue[3].ipv4.ip packetDropUndefined:count 0
scalar SingleCell.ue[3].ipv4.ip packetDropUndefined:sum(packetBytes) 0
scalar SingleCell.ue[3].ipv4.arp arpResolutionFailed:count 0
scalar SingleCell.ue[3].ipv4.arp arpResolutionCompleted:count 0
scalar SingleCell.ue[3].ipv4.arp arpResolutionInitiated:count 0
scalar SingleCell.ue[3].ipv4.arp arpReplySent:count 0
scalar SingleCell.ue[3].ipv4.arp arpReplySent:sum(packetBytes) 0
scalar SingleCell.ue[3].ipv4.arp arpRequestSent:count 0
scalar SingleCell.ue[3].ipv4.arp arpRequestSent:sum(packetBytes) 0
scalar SingleCell.ue[3].udp packetReceived:count 479
scalar SingleCell.ue[3].udp packetReceived:sum(packetBytes) 22992
scalar SingleCell.ue[3].udp packetSent:count 0
scalar SingleCell.ue[3].udp packetSent:sum(packetBytes) 0
scalar SingleCell.ue[3].udp passedUpPk:count 479
scalar SingleCell.ue[3].udp droppedPkWrongPort:count 0
scalar SingleCell.ue[3].udp droppedPkBadChecksum:count 0
scalar SingleCell.ue[3].app[0] voipReceivedThroughput:simu5g_rateavg 1126.9396302399921
scalar SingleCell.ue[3].app[0] voipPlayoutLoss:mean 0.0037768031189083819
scalar SingleCell.ue[3].app[0] voipJitter:mean 0.0060000000000000001
scalar SingleCell.ue[3].app[0] voipTaildropLoss:mean 0
scalar SingleCell.ue[3].app[0] voipMos:mean 4.3220773642353256
scalar SingleCell.ue[3].app[0] voipFrameDelay:mean 0.0044610170023799602
scalar SingleCell.ue[3].app[0] voipFrameLoss:mean 0
scalar SingleCell.ue[3].app[0] voipPlayoutDelay:mean 0.001
scalar SingleCell.ue[4].lo[0].lo rcvdPkFromHl:count 0
scalar SingleCell.ue[4].lo[0].lo rcvdPkFromHl:sum(packetBytes) 0
scalar SingleCell.ue[4].lo[0].lo passedUpPk:count 0
scalar SingleCell.ue[4].lo[0].lo passedUpPk:sum(packetBytes) 0
scalar SingleCell.ue[4].lo[0] packetDropInterfaceDown:count 0
scalar SingleCell.ue[4].lo[0] packetDropInterfaceDown:sum(packetBytes) 0
scalar SingleCell.ue[4].lo[0] packetDropNoCarrier:count 0
scalar SingleCell.ue[4].lo[0] packetDropNoCarrier:sum(packetBytes) 0
scalar SingleCell.ue[4].cellularNic.pdcp sentPacketToLowerLayer:count 0
scalar SingleCell.ue[4].cellularNic.pdcp sentPacketToLowerLayer:sum(packetBytes) 0
scalar SingleCell.ue[4].cellularNic.pdcp sentPacketToUpperLayer:count 636
scalar SingleCell.ue[4].cellularNic.pdcp sentPacketToUpperLayer:sum(packetBytes) 43248
scalar SingleCell.ue[4].cellularNic.pdcp receivedPacketFromLowerLayer:count 636
scalar SingleCell.ue[4].cellularNic.pdcp receivedPacketFromLowerLayer:sum(packetBytes) 43884
scalar SingleCell.ue[4].cellularNic.pdcp receivedPacketFromUpperLayer:count 0
scalar SingleCell.ue[4].cellularNic.pdcp receivedPacketFromUpperLayer:sum(packetBytes) 0
scalar SingleCell.ue[4].cellularNic.rlc.tm rlcPacketLossUl:mean -nan
scalar SingleCell.ue[4].cellularNic.rlc.tm rlcPacketLossUl:sum 0
scalar SingleCell.ue[4].cellularNic.rlc.tm rlcPacketLossDl:mean -nan
scalar SingleCell.ue[4].cellularNic.rlc.tm rlcPacketLossDl:sum 0
scalar SingleCell.ue[4].cellularNic.rlc.tm sentPacketToLowerLayer:count 0
scalar SingleCell.ue[4].cellularNic.rlc.tm sentPacketToLowerLayer:sum(packetBytes) 0
scalar SingleCell.ue[4].cellularNic.rlc.tm sentPacketToUpperLayer:count 0
scalar SingleCell.ue[4].cellularNic.rlc.tm sentPacketToUpperLayer:sum(packetBytes) 0
scalar SingleCell.ue[4].cellularNic.rlc.tm receivedPacketFromLowerLayer:count 0
scalar SingleCell.ue[4].cellularNic.rlc.tm receivedPacketFromLowerLayer:sum(packetBytes) 0
scalar SingleCell.ue[4].cellularNic.rlc.tm receivedPacketFromUpperLayer:count 0
scalar SingleCell.ue[4].cellularNic.rlc.tm receivedPacketFromUpperLayer:sum(packetBytes) 0
scalar SingleCell.ue[4].cellularNic.rlc.um rlcCellThroughputUl:simu5g_rateavg -nan
scalar SingleCell.ue[4].cellularNic.rlc.um rlcCellThroughputDl:simu5g_rateavg -nan
scalar SingleCell.ue[4].cellularNic.rlc.um rlcPduThroughputUl:simu5g_rateavg -nan
scalar SingleCell.ue[4].cellularNic.rlc.um rlcPduThroughputDl:simu5g_rateavg 0
scalar SingleCell.ue[4].cellularNic.rlc.um rlcPduDelayUl:mean -nan
scalar SingleCell.ue[4].cellularNic.rlc.um rlcPduDelayDl:mean 0.0040471698113207569
scalar SingleCell.ue[4].cellularNic.rlc.um rlcThroughputUl:simu5g_rateavg -nan
scalar SingleCell.ue[4].cellularNic.rlc.um rlcThroughputDl:simu5g_rateavg 2399.3228574379282
scalar SingleCell.ue[4].cellularNic.rlc.um rlcDelayUl:mean -nan
scalar SingleCell.ue[4].cellularNic.rlc.um rlcDelayDl:mean 0.0047343801967531501
scalar SingleCell.ue[4].cellularNic.rlc.um sentPacketToLowerLayer:count 0
scalar SingleCell.ue[4].cellularNic.rlc.um sentPacketToLowerLayer:sum(packetBytes) 0
scalar SingleCell.ue[4].cellularNic.rlc.um sentPacketToUpperLayer:count 636
scalar SingleCell.ue[4].cellularNic.rlc.um sentPacketToUpperLayer:sum(packetBytes) 43884
scalar SingleCell.ue[4].cellularNic.rlc.um receivedPacketFromLowerLayer:count 636
scalar SingleCell.ue[4].cellularNic.rlc.um receivedPacketFromLowerLayer:sum(packetBytes) 45156
scalar SingleCell.ue[4].cellularNic.rlc.um receivedPacketFromUpperLayer:count 0
scalar SingleCell.ue[4].cellularNic.rlc.um receivedPacketFromUpperLayer:sum(packetBytes) 0
scalar SingleCell.ue[4].cellularNic.rlc.am rlcPacketLossTotal:mean -nan
scalar SingleCell.ue[4].cellularNic.rlc.am rlcCellThroughputUl:simu5g_rateavg -nan
scalar SingleCell.ue[4].cellularNic.rlc.am rlcCellThroughputDl:simu5g_rateavg -nan
scalar SingleCell.ue[4].cellularNic.rlc.am rlcPduThroughputUl:simu5g_rateavg -nan
scalar SingleCell.ue[4].cellularNic.rlc.am rlcPduThroughputDl:simu5g_rateavg -nan
scalar SingleCell.ue[4].cellularNic.rlc.am rlcPduDelayUl:mean -nan
scalar SingleCell.ue[4].cellularNic.rlc.am rlcPduDelayDl:mean -nan
scalar SingleCell.ue[4].cellularNic.rlc.am rlcThroughputUl:simu5g_rateavg -nan
scalar SingleCell.ue[4].cellularNic.rlc.am rlcThroughputDl:simu5g_rateavg -nan
scalar SingleCell.ue[4].cellularNic.rlc.am rlcDelayUl:mean -nan
scalar SingleCell.ue[4].cellularNic.rlc.am rlcDelayDl:mean -nan
scalar SingleCell.ue[4].cellularNic.rlc.am rlcPduPacketLossUl:mean -nan
scalar SingleCell.ue[4].cellularNic.rlc.am rlcPduPacketLossDl:mean -nan
scalar SingleCell.ue[4].cellularNic.rlc.am rlcPacketLossUl:mean -nan
scalar SingleCell.ue[4].cellularNic.rlc.am rlcPacketLossDl:mean -nan
scalar SingleCell.ue[4].cellularNic.rlc.am rlcCellPacketLossUl:mean -nan
scalar SingleCell.ue[4].cellularNic.rlc.am rlcCellPacketLossDl:mean -nan
scalar SingleCell.ue[4].cellularNic.mac harqTxAttemptsUl:mean -nan
scalar SingleCell.ue[4].cellularNic.mac harqTxAttemptsDl:mean 1.0078616352201257
scalar SingleCell.ue[4].cellularNic.mac harqErrorRate_4th_Ul:mean -nan
scalar SingleCell.ue[4].cellularNic.mac harqErrorRate_4th_Dl:mean -nan
scalar SingleCell.ue[4].cellularNic.mac harqErrorRate_3rd_Ul:mean -nan
scalar SingleCell.ue[4].cellularNic.mac harqErrorRate_3rd_Dl:mean -nan
scalar SingleCell.ue[4].cellularNic.mac harqErrorRate_2nd_Ul:mean -nan
scalar SingleCell.ue[4].cellularNic.mac harqErrorRate_2nd_Dl:mean 0
scalar SingleCell.ue[4].cellularNic.mac harqErrorRate_1st_Ul:mean -nan
[...]
scalar SingleCell.ue[4].cellularNic.phy servingCell:vector:sum 201
scalar SingleCell.ue[4].cellularNic.phy servingCell:vector:sumweights 202
scalar SingleCell.ue[4].cellularNic.phy servingCell:vector:mean 0.99504950495049505
scalar SingleCell.ue[4].cellularNic.phy servingCell:vector:stddev 0.07035975447302889
scalar SingleCell.ue[4].cellularNic.phy servingCell:vector:min 0
scalar SingleCell.ue[4].cellularNic.phy servingCell:vector:max 1
scalar SingleCell.ue[4].cellularNic.phy servingCell:vector:starttime 0
scalar SingleCell.ue[4].cellularNic.phy servingCell:vector:endtime 20
scalar SingleCell.ue[4].cellularNic.phy averageCqiDl:vector:count 641
scalar SingleCell.ue[4].cellularNic.phy averageCqiDl:vector:sum 9474
scalar SingleCell.ue[4].cellularNic.phy averageCqiDl:vector:sumweights 641
scalar SingleCell.ue[4].cellularNic.phy averageCqiDl:vector:mean 14.78003120124805
scalar SingleCell.ue[4].cellularNic.phy averageCqiDl:vector:stddev 0.4145486992199533
scalar SingleCell.ue[4].cellularNic.phy averageCqiDl:vector:min 14
scalar SingleCell.ue[4].cellularNic.phy averageCqiDl:vector:max 15
scalar SingleCell.ue[4].cellularNic.phy averageCqiDl:vector:starttime 0.012
scalar SingleCell.ue[4].cellularNic.phy averageCqiDl:vector:endtime 19.989000000000001
scalar SingleCell.ue[4].cellularNic.phy averageCqiUl:vector:count 0
scalar SingleCell.ue[4].cellularNic.phy averageCqiUl:vector:sum 0
scalar SingleCell.ue[4].cellularNic.phy averageCqiUl:vector:sumweights 0
scalar SingleCell.ue[4].cellularNic.phy averageCqiUl:vector:mean -nan
scalar SingleCell.ue[4].cellularNic.phy averageCqiUl:vector:stddev nan
scalar SingleCell.ue[4].cellularNic.phy averageCqiUl:vector:min inf
scalar SingleCell.ue[4].cellularNic.phy averageCqiUl:vector:max -inf
scalar SingleCell.ue[4].cellularNic.phy averageCqiUl:vector:starttime nan
scalar SingleCell.ue[4].cellularNic.phy averageCqiUl:vector:endtime nan
scalar SingleCell.ue[4].cellularNic.channelModel[0] rcvdSinrDl:vector:count 641
scalar SingleCell.ue[4].cellularNic.channelModel[0] rcvdSinrDl:vector:sum 31107.883596625157
scalar SingleCell.ue[4].cellularNic.channelModel[0] rcvdSinrDl:vector:sumweights 641
scalar SingleCell.ue[4].cellularNic.channelModel[0] rcvdSinrDl:vector:mean 48.53023962032006
scalar SingleCell.ue[4].cellularNic.channelModel[0] rcvdSinrDl:vector:stddev 6.6810723013165587
scalar SingleCell.ue[4].cellularNic.channelModel[0] rcvdSinrDl:vector:min 20.421200417769668
scalar SingleCell.ue[4].cellularNic.channelModel[0] rcvdSinrDl:vector:max 61.900959518838569
scalar SingleCell.ue[4].cellularNic.channelModel[0] rcvdSinrDl:vector:starttime 0.012
scalar SingleCell.ue[4].cellularNic.channelModel[0] rcvdSinrDl:vector:endtime 19.989000000000001
scalar SingleCell.ue[4].cellularNic.channelModel[0] rcvdSinrUl:vector:count 0
scalar SingleCell.ue[4].cellularNic.channelModel[0] rcvdSinrUl:vector:sum 0
scalar SingleCell.ue[4].cellularNic.channelModel[0] rcvdSinrUl:vector:sumweights 0
scalar SingleCell.ue[4].cellularNic.channelModel[0] rcvdSinrUl:vector:mean -nan
scalar SingleCell.ue[4].cellularNic.channelModel[0] rcvdSinrUl:vector:stddev nan
scalar SingleCell.ue[4].cellularNic.channelModel[0] rcvdSinrUl:vector:min inf
scalar SingleCell.ue[4].cellularNic.channelModel[0] rcvdSinrUl:vector:max -inf
scalar SingleCell.ue[4].cellularNic.channelModel[0] rcvdSinrUl:vector:starttime nan
scalar SingleCell.ue[4].cellularNic.channelModel[0] rcvdSinrUl:vector:endtime nan
scalar SingleCell.ue[4].cellularNic.channelModel[0] rcvdSinrD2D:vector:count 0
scalar SingleCell.ue[4].cellularNic.channelModel[0] rcvdSinrD2D:vector:sum 0
scalar SingleCell.ue[4].cellularNic.channelModel[0] rcvdSinrD2D:vector:sumweights 0
scalar SingleCell.ue[4].cellularNic.channelModel[0] rcvdSinrD2D:vector:mean -nan
scalar SingleCell.ue[4].cellularNic.channelModel[0] rcvdSinrD2D:vector:stddev nan
scalar SingleCell.ue[4].cellularNic.channelModel[0] rcvdSinrD2D:vector:min inf
scalar SingleCell.ue[4].cellularNic.channelModel[0] rcvdSinrD2D:vector:max -inf
scalar SingleCell.ue[4].cellularNic.channelModel[0] rcvdSinrD2D:vector:starttime nan
scalar SingleCell.ue[4].cellularNic.channelModel[0] rcvdSinrD2D:vector:endtime nan
scalar SingleCell.ue[4].cellularNic.channelModel[0] measuredSinrDl:vector:count 3334
scalar SingleCell.ue[4].cellularNic.channelModel[0] measuredSinrDl:vector:sum 151816.92966728748
scalar SingleCell.ue[4].cellularNic.channelModel[0] measuredSinrDl:vector:sumweights 3334
scalar SingleCell.ue[4].cellularNic.channelModel[0] measuredSinrDl:vector:mean 45.535971705845071
scalar SingleCell.ue[4].cellularNic.channelModel[0] measuredSinrDl:vector:stddev 4.4572303750401971
scalar SingleCell.ue[4].cellularNic.channelModel[0] measuredSinrDl:vector:min 31.49786394190377
scalar SingleCell.ue[4].cellularNic.channelModel[0] measuredSinrDl:vector:max 56.000963016238053
scalar SingleCell.ue[4].cellularNic.channelModel[0] measuredSinrDl:vector:starttime 0.002
scalar SingleCell.ue[4].cellularNic.channelModel[0] measuredSinrDl:vector:endtime 20
scalar SingleCell.ue[4].cellularNic.channelModel[0] measuredSinrUl:vector:count 3334
scalar SingleCell.ue[4].cellularNic.channelModel[0] measuredSinrUl:vector:sum 117402.50176615562
scalar SingleCell.ue[4].cellularNic.channelModel[0] measuredSinrUl:vector:sumweights 3334
scalar SingleCell.ue[4].cellularNic.channelModel[0] measuredSinrUl:vector:mean 35.213707788289028
scalar SingleCell.ue[4].cellularNic.channelModel[0] measuredSinrUl:vector:stddev 5.7209806597325317
scalar SingleCell.ue[4].cellularNic.channelModel[0] measuredSinrUl:vector:min 18.108486720491317
scalar SingleCell.ue[4].cellularNic.channelModel[0] measuredSinrUl:vector:max 44.276728877802022
scalar SingleCell.ue[4].cellularNic.channelModel[0] measuredSinrUl:vector:starttime 0.002
scalar SingleCell.ue[4].cellularNic.channelModel[0] measuredSinrUl:vector:endtime 20
scalar SingleCell.ue[4].cellularNic packetDropInterfaceDown:vector(packetBytes):count 0
scalar SingleCell.ue[4].cellularNic packetDropInterfaceDown:vector(packetBytes):sum 0
scalar SingleCell.ue[4].cellularNic packetDropInterfaceDown:vector(packetBytes):sumweights 0
scalar SingleCell.ue[4].cellularNic packetDropInterfaceDown:vector(packetBytes):mean -nan
scalar SingleCell.ue[4].cellularNic packetDropInterfaceDown:vector(packetBytes):stddev nan
scalar SingleCell.ue[4].cellularNic packetDropInterfaceDown:vector(packetBytes):min inf
scalar SingleCell.ue[4].cellularNic packetDropInterfaceDown:vector(packetBytes):max -inf
scalar SingleCell.ue[4].cellularNic packetDropInterfaceDown:vector(packetBytes):starttime nan
scalar SingleCell.ue[4].cellularNic packetDropInterfaceDown:vector(packetBytes):endtime nan
scalar SingleCell.ue[4].cellularNic packetDropNoCarrier:vector(packetBytes):count 0
scalar SingleCell.ue[4].cellularNic packetDropNoCarrier:vector(packetBytes):sum 0
scalar SingleCell.ue[4].cellularNic packetDropNoCarrier:vector(packetBytes):sumweights 0
scalar SingleCell.ue[4].cellularNic packetDropNoCarrier:vector(packetBytes):mean -nan
scalar SingleCell.ue[4].cellularNic packetDropNoCarrier:vector(packetBytes):stddev nan
scalar SingleCell.ue[4].cellularNic packetDropNoCarrier:vector(packetBytes):min inf
scalar SingleCell.ue[4].cellularNic packetDropNoCarrier:vector(packetBytes):max -inf
scalar SingleCell.ue[4].cellularNic packetDropNoCarrier:vector(packetBytes):starttime nan
scalar SingleCell.ue[4].cellularNic packetDropNoCarrier:vector(packetBytes):endtime nan
scalar SingleCell.ue[4].encap encapPk:vector(packetBytes):count 0
scalar SingleCell.ue[4].encap encapPk:vector(packetBytes):sum 0
scalar SingleCell.ue[4].encap encapPk:vector(packetBytes):sumweights 0
scalar SingleCell.ue[4].encap encapPk:vector(packetBytes):mean -nan
scalar SingleCell.ue[4].encap encapPk:vector(packetBytes):stddev nan
scalar SingleCell.ue[4].encap encapPk:vector(packetBytes):min inf
scalar SingleCell.ue[4].encap encapPk:vector(packetBytes):max -inf
scalar SingleCell.ue[4].encap encapPk:vector(packetBytes):starttime nan
scalar SingleCell.ue[4].encap encapPk:vector(packetBytes):endtime nan
scalar SingleCell.ue[4].encap decapPk:vector(packetBytes):count 0
scalar SingleCell.ue[4].encap decapPk:vector(packetBytes):sum 0
scalar SingleCell.ue[4].encap decapPk:vector(packetBytes):sumweights 0
scalar SingleCell.ue[4].encap decapPk:vector(packetBytes):mean -nan
scalar SingleCell.ue[4].encap decapPk:vector(packetBytes):stddev nan
scalar SingleCell.ue[4].encap decapPk:vector(packetBytes):min inf
scalar SingleCell.ue[4].encap decapPk:vector(packetBytes):max -inf
scalar SingleCell.ue[4].encap decapPk:vector(packetBytes):starttime nan
scalar SingleCell.ue[4].encap decapPk:vector(packetBytes):endtime nan
scalar SingleCell.ue[4].encap pauseSent:vector:count 0
scalar SingleCell.ue[4].encap pauseSent:vector:sum 0
scalar SingleCell.ue[4].encap pauseSent:vector:sumweights 0
scalar SingleCell.ue[4].encap pauseSent:vector:mean -nan
scalar SingleCell.ue[4].encap pauseSent:vector:stddev nan
scalar SingleCell.ue[4].encap pauseSent:vector:min inf
scalar SingleCell.ue[4].encap pauseSent:vector:max -inf
scalar SingleCell.ue[4].encap pauseSent:vector:starttime nan
scalar SingleCell.ue[4].encap pauseSent:vector:endtime nan
scalar SingleCell.ue[4].ipv4.ip packetDropAddressResolutionFailed:vector(packetBytes):count 0
scalar SingleCell.ue[4].ipv4.ip packetDropAddressResolutionFailed:vector(packetBytes):sum 0
scalar SingleCell.ue[4].ipv4.ip packetDropAddressResolutionFailed:vector(packetBytes):sumweights 0
scalar SingleCell.ue[4].ipv4.ip packetDropAddressResolutionFailed:vector(packetBytes):mean -nan
scalar SingleCell.ue[4].ipv4.ip packetDropAddressResolutionFailed:vector(packetBytes):stddev nan
scalar SingleCell.ue[4].ipv4.ip packetDropAddressResolutionFailed:vector(packetBytes):min inf
scalar SingleCell.ue[4].ipv4.ip packetDropAddressResolutionFailed:vector(packetBytes):max -inf
scalar SingleCell.ue[4].ipv4.ip packetDropAddressResolutionFailed:vector(packetBytes):starttime nan
scalar SingleCell.ue[4].ipv4.ip packetDropAddressResolutionFailed:vector(packetBytes):endtime nan
scalar SingleCell.ue[4].ipv4.ip packetDropHopLimitReached:vector(packetBytes):count 0
scalar SingleCell.ue[4].ipv4.ip packetDropHopLimitReached:vector(packetBytes):sum 0
scalar SingleCell.ue[4].ipv4.ip packetDropHopLimitReached:vector(packetBytes):sumweights 0
scalar SingleCell.ue[4].ipv4.ip packetDropHopLimitReached:vector(packetBytes):mean -nan
scalar SingleCell.ue[4].ipv4.ip packetDropHopLimitReached:vector(packetBytes):stddev nan
scalar SingleCell.ue[4].ipv4.ip packetDropHopLimitReached:vector(packetBytes):min inf
scalar SingleCell.ue[4].ipv4.ip packetDropHopLimitReached:vector(packetBytes):max -inf
scalar SingleCell.ue[4].ipv4.ip packetDropHopLimitReached:vector(packetBytes):starttime nan
scalar SingleCell.ue[4].ipv4.ip packetDropHopLimitReached:vector(packetBytes):endtime nan
scalar SingleCell.ue[4].ipv4.ip packetDropForwardingDisabled:vector(packetBytes):count 0
scalar SingleCell.ue[4].ipv4.ip packetDropForwardingDisabled:vector(packetBytes):sum 0
scalar SingleCell.ue[4].ipv4.ip packetDropForwardingDisabled:vector(packetBytes):sumweights 0
scalar SingleCell.ue[4].ipv4.ip packetDropForwardingDisabled:vector(packetBytes):mean -nan
scalar SingleCell.ue[4].ipv4.ip packetDropForwardingDisabled:vector(packetBytes):stddev nan
scalar SingleCell.ue[4].ipv4.ip packetDropForwardingDisabled:vector(packetBytes):min inf
scalar SingleCell.ue[4].ipv4.ip packetDropForwardingDisabled:vector(packetBytes):max -inf
scalar SingleCell.ue[4].ipv4.ip packetDropForwardingDisabled:vector(packetBytes):starttime nan
scalar SingleCell.ue[4].ipv4.ip packetDropForwardingDisabled:vector(packetBytes):endtime nan
scalar SingleCell.ue[4].ipv4.ip packetDropNoInterfaceFound:vector(packetBytes):count 0
scalar SingleCell.ue[4].ipv4.ip packetDropNoInterfaceFound:vector(packetBytes):sum 0
scalar SingleCell.ue[4].ipv4.ip packetDropNoInterfaceFound:vector(packetBytes):sumweights 0
scalar SingleCell.ue[4].ipv4.ip packetDropNoInterfaceFound:vector(packetBytes):mean -nan
scalar SingleCell.ue[4].ipv4.ip packetDropNoInterfaceFound:vector(packetBytes):stddev nan
scalar SingleCell.ue[4].ipv4.ip packetDropNoInterfaceFound:vector(packetBytes):min inf
scalar SingleCell.ue[4].ipv4.ip packetDropNoInterfaceFound:vector(packetBytes):max -inf
scalar SingleCell.ue[4].ipv4.ip packetDropNoInterfaceFound:vector(packetBytes):starttime nan
scalar SingleCell.ue[4].ipv4.ip packetDropNoInterfaceFound:vector(packetBytes):endtime nan
scalar SingleCell.ue[4].ipv4.ip packetDropNoRouteFound:vector(packetBytes):count 0
scalar SingleCell.ue[4].ipv4.ip packetDropNoRouteFound:vector(packetBytes):sum 0
scalar SingleCell.ue[4].ipv4.ip packetDropNoRouteFound:vector(packetBytes):sumweights 0
scalar SingleCell.ue[4].ipv4.ip packetDropNoRouteFound:vector(packetBytes):mean -nan
scalar SingleCell.ue[4].ipv4.ip packetDropNoRouteFound:vector(packetBytes):stddev nan
scalar SingleCell.ue[4].ipv4.ip packetDropNoRouteFound:vector(packetBytes):min inf
scalar SingleCell.ue[4].ipv4.ip packetDropNoRouteFound:vector(packetBytes):max -inf
scalar SingleCell.ue[4].ipv4.ip packetDropNoRouteFound:vector(packetBytes):starttime nan
scalar SingleCell.ue[4].ipv4.ip packetDropNoRouteFound:vector(packetBytes):endtime nan
scalar SingleCell.ue[4].ipv4.ip packetDropUndefined:vector(packetBytes):count 0
scalar SingleCell.ue[4].ipv4.ip packetDropUndefined:vector(packetBytes):sum 0
scalar SingleCell.ue[4].ipv4.ip packetDropUndefined:vector(packetBytes):sumweights 0
scalar SingleCell.ue[4].ipv4.ip packetDropUndefined:vector(packetBytes):mean -nan
scalar SingleCell.ue[4].ipv4.ip packetDropUndefined:vector(packetBytes):stddev nan
scalar SingleCell.ue[4].ipv4.ip packetDropUndefined:vector(packetBytes):min inf
scalar SingleCell.ue[4].ipv4.ip packetDropUndefined:vector(packetBytes):max -inf
scalar SingleCell.ue[4].ipv4.ip packetDropUndefined:vector(packetBytes):starttime nan
scalar SingleCell.ue[4].ipv4.ip packetDropUndefined:vector(packetBytes):endtime nan
scalar SingleCell.ue[4].ipv4.arp arpRequestSent:vector(packetBytes):count 0
scalar SingleCell.ue[4].ipv4.arp arpRequestSent:vector(packetBytes):sum 0
scalar SingleCell.ue[4].ipv4.arp arpRequestSent:vector(packetBytes):sumweights 0
scalar SingleCell.ue[4].ipv4.arp arpRequestSent:vector(packetBytes):mean -nan
scalar SingleCell.ue[4].ipv4.arp arpRequestSent:vector(packetBytes):stddev nan
scalar SingleCell.ue[4].ipv4.arp arpRequestSent:vector(packetBytes):min inf
scalar SingleCell.ue[4].ipv4.arp arpRequestSent:vector(packetBytes):max -inf
scalar SingleCell.ue[4].ipv4.arp arpRequestSent:vector(packetBytes):starttime nan
scalar SingleCell.ue[4].ipv4.arp arpRequestSent:vector(packetBytes):endtime nan
scalar SingleCell.ue[4].ipv4.arp arpReplySent:vector(packetBytes):count 0
scalar SingleCell.ue[4].ipv4.arp arpReplySent:vector(packetBytes):sum 0
scalar SingleCell.ue[4].ipv4.arp arpReplySent:vector(packetBytes):sumweights 0
scalar SingleCell.ue[4].ipv4.arp arpReplySent:vector(packetBytes):mean -nan
scalar SingleCell.ue[4].ipv4.arp arpReplySent:vector(packetBytes):stddev nan
scalar SingleCell.ue[4].ipv4.arp arpReplySent:vector(packetBytes):min inf
scalar SingleCell.ue[4].ipv4.arp arpReplySent:vector(packetBytes):max -inf
scalar SingleCell.ue[4].ipv4.arp arpReplySent:vector(packetBytes):starttime nan
scalar SingleCell.ue[4].ipv4.arp arpReplySent:vector(packetBytes):endtime nan
scalar SingleCell.ue[4].udp packetSent:vector(packetBytes):count 0
scalar SingleCell.ue[4].udp packetSent:vector(packetBytes):sum 0
scalar SingleCell.ue[4].udp packetSent:vector(packetBytes):sumweights 0
scalar SingleCell.ue[4].udp packetSent:vector(packetBytes):mean -nan
scalar SingleCell.ue[4].udp packetSent:vector(packetBytes):stddev nan
scalar SingleCell.ue[4].udp packetSent:vector(packetBytes):min inf
scalar SingleCell.ue[4].udp packetSent:vector(packetBytes):max -inf
scalar SingleCell.ue[4].udp packetSent:vector(packetBytes):starttime nan
scalar SingleCell.ue[4].udp packetSent:vector(packetBytes):endtime nan
scalar SingleCell.ue[4].udp packetReceived:vector(packetBytes):count 636
scalar SingleCell.ue[4].udp packetReceived:vector(packetBytes):sum 30528
scalar SingleCell.ue[4].udp packetReceived:vector(packetBytes):sumweights 636
scalar SingleCell.ue[4].udp packetReceived:vector(packetBytes):mean 48
scalar SingleCell.ue[4].udp packetReceived:vector(packetBytes):stddev 0
scalar SingleCell.ue[4].udp packetReceived:vector(packetBytes):min 48
scalar SingleCell.ue[4].udp packetReceived:vector(packetBytes):max 48
scalar SingleCell.ue[4].udp packetReceived:vector(packetBytes):starttime 0.014999999999999999
scalar SingleCell.ue[4].udp packetReceived:vector(packetBytes):endtime 19.992000000000001
scalar SingleCell.ue[4].udp passedUpPk:vector(count):count 637
scalar SingleCell.ue[4].udp passedUpPk:vector(count):sum 202566
scalar SingleCell.ue[4].udp passedUpPk:vector(count):sumweights 637
scalar SingleCell.ue[4].udp passedUpPk:vector(count):mean 318
scalar SingleCell.ue[4].udp passedUpPk:vector(count):stddev 184.03034170121694
scalar SingleCell.ue[4].udp passedUpPk:vector(count):min 0
scalar SingleCell.ue[4].udp passedUpPk:vector(count):max 636
scalar SingleCell.ue[4].udp passedUpPk:vector(count):starttime 0
scalar SingleCell.ue[4].udp passedUpPk:vector(count):endtime 19.992000000000001
scalar SingleCell.ue[4].udp droppedPkWrongPort:vector(count):count 1
scalar SingleCell.ue[4].udp droppedPkWrongPort:vector(count):sum 0
scalar SingleCell.ue[4].udp droppedPkWrongPort:vector(count):sumweights 1
scalar SingleCell.ue[4].udp droppedPkWrongPort:vector(count):mean 0
scalar SingleCell.ue[4].udp droppedPkWrongPort:vector(count):stddev nan
scalar SingleCell.ue[4].udp droppedPkWrongPort:vector(count):min 0
scalar SingleCell.ue[4].udp droppedPkWrongPort:vector(count):max 0
scalar SingleCell.ue[4].udp droppedPkWrongPort:vector(count):starttime 0
scalar SingleCell.ue[4].udp droppedPkWrongPort:vector(count):endtime 0
scalar SingleCell.ue[4].udp droppedPkBadChecksum:vector(count):count 1
scalar SingleCell.ue[4].udp droppedPkBadChecksum:vector(count):sum 0
scalar SingleCell.ue[4].udp droppedPkBadChecksum:vector(count):sumweights 1
scalar SingleCell.ue[4].udp droppedPkBadChecksum:vector(count):mean 0
scalar SingleCell.ue[4].udp droppedPkBadChecksum:vector(count):stddev nan
scalar SingleCell.ue[4].udp droppedPkBadChecksum:vector(count):min 0
scalar SingleCell.ue[4].udp droppedPkBadChecksum:vector(count):max 0
scalar SingleCell.ue[4].udp droppedPkBadChecksum:vector(count):starttime 0
scalar SingleCell.ue[4].udp droppedPkBadChecksum:vector(count):endtime 0
scalar SingleCell.ue[4].app[0] voipFrameDelay:vector:count 636
scalar SingleCell.ue[4].app[0] voipFrameDelay:vector:sum 3.0112940019350289
scalar SingleCell.ue[4].app[0] voipFrameDelay:vector:sumweights 636
scalar SingleCell.ue[4].app[0] voipFrameDelay:vector:mean 0.00473473899675319
scalar SingleCell.ue[4].app[0] voipFrameDelay:vector:stddev 0.00056666908923258422
scalar SingleCell.ue[4].app[0] voipFrameDelay:vector:min 0.0040149814490000003
scalar SingleCell.ue[4].app[0] voipFrameDelay:vector:max 0.010956964854000001
scalar SingleCell.ue[4].app[0] voipFrameDelay:vector:starttime 0.014999999999999999
scalar SingleCell.ue[4].app[0] voipFrameDelay:vector:endtime 19.992000000000001
scalar SingleCell.ue[4].app[0] voipReceivedThroughput:vector:count 636
scalar SingleCell.ue[4].app[0] voipReceivedThroughput:vector:sum 926030.78012797993
scalar SingleCell.ue[4].app[0] voipReceivedThroughput:vector:sumweights 636
scalar SingleCell.ue[4].app[0] voipReceivedThroughput:vector:mean 1456.0232391949371
scalar SingleCell.ue[4].app[0] voipReceivedThroughput:vector:stddev 233.39426584932417
scalar SingleCell.ue[4].app[0] voipReceivedThroughput:vector:min 1212.0461023670841
scalar SingleCell.ue[4].app[0] voipReceivedThroughput:vector:max 2666.666666666667
scalar SingleCell.ue[4].app[0] voipReceivedThroughput:vector:starttime 0.014999999999999999
scalar SingleCell.ue[4].app[0] voipReceivedThroughput:vector:endtime 19.992000000000001

