version 3
run SchedulersTest-0-20260710-13:58:40-780993
attr configname SchedulersTest
attr datetime 20260710-13:58:40
attr datetimef 20260710-135840
attr experiment SchedulersTest
attr inifile omnetpp.ini
attr iterationvars "$sched=\"PF\", $numUEs=50, $pktSize=30B"
attr iterationvarsd sched=PF/numUEs=50/pktSize=30B
attr iterationvarsf sched=PF,numUEs=50,pktSize=30B-
attr measurement "$sched=\"PF\", $numUEs=50, $pktSize=30B"
attr network simu5g.simulations.lte.networks.SingleCell
attr processid 780993
attr repetition 0
attr replication #0
attr resultdir results
attr runnumber 0
attr seedset 0
itervar numUEs 50
itervar pktSize 30B
itervar sched "\"PF\""
config **.param-recording false
config image-path /home/andras/projects/Simu5G-fork/simu5g-fork/images
config output-scalar-file results/omnetpp.ini-SchedulersTest-#0.sca
config output-scalar-precision 17
config output-vector-file results/omnetpp.ini-SchedulersTest-#0.vec
config output-vector-precision 17
config record-eventlog false
config sim-time-limit 10s
config network simu5g.simulations.lte.networks.SingleCell
config sim-time-limit 10s
config repeat 1
config output-scalar-file "results/SchedulersTest/$sched=\"PF\", $numUEs=50, $pktSize=30B-0.sca"
config output-vector-file "results/SchedulersTest/$sched=\"PF\", $numUEs=50, $pktSize=30B-0.vec"
config seed-set 0
config **.ue[*].servingNodeId 1
config *.eNB.mobility.initFromDisplayString false
config *.eNB.mobility.initialX 0m
config *.eNB.mobility.initialY 0m
config **.schedulingDisciplineDl "\"PF\""
config **.numUe 50
config *.server.app[*].packetSize 30B
config *.server.numApps 50
config *.ue[*].mobility.initialMovementHeading "uniform(0deg, 360deg)"
config *.ue[*].mobility.constraintAreaMaxX 1000m
config *.ue[*].mobility.constraintAreaMaxY 1000m
config *.ue[*].mobility.constraintAreaMinX 0m
config *.ue[*].mobility.constraintAreaMinY 0m
config *.ue[*].mobility.initFromDisplayString false
config *.ue[*].mobility.initialX uniform(0m,300m)
config *.ue[*].mobility.initialY uniform(0m,300m)
config *.ue[*].mobility.initialZ 0m
config *.ue[*].mobility.speed 1mps
config *.ue[*].mobility.typename LinearMobility
config *.ue[*].app[*].typename VoipReceiver
config *.ue[*].app[0].localPort 3000
config *.server.app[*].destAddress "\"ue[\"+string(ancestorIndex(0))+\"]\""
config *.server.app[*].destPort 3000
config *.server.app[*].localPort 3088+ancestorIndex(0)
config *.server.app[*].typename VoipSender
config *.server.app[*].startTime uniform(0s,0.02s)
config sim-time-limit 20s
config output-scalar-file results/SchedulersTest/0.sca
config output-vector-file results/SchedulersTest/0.vec
config seed-set 0
config **.vector-recording false
config **.mobility.constraintAreaMinZ 0m
config **.mobility.constraintAreaMaxZ 0m
config **.mobility.initFromDisplayString true
config **.numBands 6
config **.ueTxPower 26dBm
config **.eNodeBTxPower 40dBm
config *.configurator.config "xmldoc(\"./demo.xml\")"

scalar SingleCell.server.lo[0].lo rcvdPkFromHl:count 0
scalar SingleCell.server.lo[0].lo rcvdPkFromHl:sum(packetBytes) 0
scalar SingleCell.server.lo[0].lo passedUpPk:count 0
scalar SingleCell.server.lo[0].lo passedUpPk:sum(packetBytes) 0
scalar SingleCell.server.lo[0] packetDropInterfaceDown:count 0
scalar SingleCell.server.lo[0] packetDropInterfaceDown:sum(packetBytes) 0
scalar SingleCell.server.lo[0] packetDropNoCarrier:count 0
scalar SingleCell.server.lo[0] packetDropNoCarrier:sum(packetBytes) 0
scalar SingleCell.server.ppp[0].queue queueLength:last 0
scalar SingleCell.server.ppp[0].queue queueLength:max 0
scalar SingleCell.server.ppp[0].queue queueLength:timeavg 0
scalar SingleCell.server.ppp[0].queue queueBitLength:last 0
scalar SingleCell.server.ppp[0].queue queueBitLength:max 0
scalar SingleCell.server.ppp[0].queue queueBitLength:timeavg 0
scalar SingleCell.server.ppp[0].queue outgoingPackets:count 15207
scalar SingleCell.server.ppp[0].queue outgoingPacketLengths:sum 7056048
scalar SingleCell.server.ppp[0].queue incomingPackets:count 15207
scalar SingleCell.server.ppp[0].queue incomingPacketLengths:sum 7056048
scalar SingleCell.server.ppp[0].queue droppedPacketsQueueOverflow:count 0
scalar SingleCell.server.ppp[0].queue droppedPacketLengthsQueueOverflow:sum 0
scalar SingleCell.server.ppp[0].ppp transmissionState:timeavg 7.907639999997623e-05
scalar SingleCell.server.ppp[0].ppp rxPkOk:count 15161
scalar SingleCell.server.ppp[0].ppp rxPkOk:sum(packetBytes) 955143
scalar SingleCell.server.ppp[0].ppp txPk:count 15207
scalar SingleCell.server.ppp[0].ppp txPk:sum(packetBytes) 988455
scalar SingleCell.server.ppp[0].ppp rcvdPkFromHl:count 15207
scalar SingleCell.server.ppp[0].ppp rcvdPkFromHl:sum(packetBytes) 882006
scalar SingleCell.server.ppp[0].ppp passedUpPk:count 15161
scalar SingleCell.server.ppp[0].ppp passedUpPk:sum(packetBytes) 849016
scalar SingleCell.server.ppp[0].ppp packetDropIncorrectlyReceived:count 0
scalar SingleCell.server.ppp[0].ppp packetDropIncorrectlyReceived:sum(packetBytes) 0
scalar SingleCell.server.ppp[0].ppp packetDropInterfaceDown:count 0
scalar SingleCell.server.ppp[0].ppp packetDropInterfaceDown:sum(packetBytes) 0
scalar SingleCell.server.ppp[0] packetDropInterfaceDown:count 0
scalar SingleCell.server.ppp[0] packetDropInterfaceDown:sum(packetBytes) 0
scalar SingleCell.server.ppp[0] packetDropNoCarrier:count 0
scalar SingleCell.server.ppp[0] packetDropNoCarrier:sum(packetBytes) 0
scalar SingleCell.server.ipv4.ip packetDropAddressResolutionFailed:count 0
scalar SingleCell.server.ipv4.ip packetDropAddressResolutionFailed:sum(packetBytes) 0
scalar SingleCell.server.ipv4.ip packetDropHopLimitReached:count 0
scalar SingleCell.server.ipv4.ip packetDropHopLimitReached:sum(packetBytes) 0
scalar SingleCell.server.ipv4.ip packetDropForwardingDisabled:count 0
scalar SingleCell.server.ipv4.ip packetDropForwardingDisabled:sum(packetBytes) 0
scalar SingleCell.server.ipv4.ip packetDropNoInterfaceFound:count 0
scalar SingleCell.server.ipv4.ip packetDropNoInterfaceFound:sum(packetBytes) 0
scalar SingleCell.server.ipv4.ip packetDropNoRouteFound:count 0
scalar SingleCell.server.ipv4.ip packetDropNoRouteFound:sum(packetBytes) 0
scalar SingleCell.server.ipv4.ip packetDropUndefined:count 0
scalar SingleCell.server.ipv4.ip packetDropUndefined:sum(packetBytes) 0
scalar SingleCell.server.ipv4.arp arpResolutionFailed:count 0
scalar SingleCell.server.ipv4.arp arpResolutionCompleted:count 0
scalar SingleCell.server.ipv4.arp arpResolutionInitiated:count 0
scalar SingleCell.server.ipv4.arp arpReplySent:count 0
scalar SingleCell.server.ipv4.arp arpReplySent:sum(packetBytes) 0
scalar SingleCell.server.ipv4.arp arpRequestSent:count 0
scalar SingleCell.server.ipv4.arp arpRequestSent:sum(packetBytes) 0
scalar SingleCell.server.udp packetReceived:count 0
scalar SingleCell.server.udp packetReceived:sum(packetBytes) 0
scalar SingleCell.server.udp packetSent:count 15207
scalar SingleCell.server.udp packetSent:sum(packetBytes) 577866
scalar SingleCell.server.udp passedUpPk:count 0
scalar SingleCell.server.udp droppedPkWrongPort:count 0
scalar SingleCell.server.udp droppedPkBadChecksum:count 0
scalar SingleCell.server.app[0] voipGeneratedThroughput:simu5g_rateavg 993.33792856382183
scalar SingleCell.server.app[1] voipGeneratedThroughput:simu5g_rateavg 1209.8269580582644
scalar SingleCell.server.app[2] voipGeneratedThroughput:simu5g_rateavg 615.31638336166793
scalar SingleCell.server.app[3] voipGeneratedThroughput:simu5g_rateavg 1033.4481856695247
scalar SingleCell.server.app[4] voipGeneratedThroughput:simu5g_rateavg 1163.1097414589988
scalar SingleCell.server.app[5] voipGeneratedThroughput:simu5g_rateavg 949.90175943406916
scalar SingleCell.server.app[6] voipGeneratedThroughput:simu5g_rateavg 884.88740840658045
scalar SingleCell.server.app[7] voipGeneratedThroughput:simu5g_rateavg 733.8257088986486
scalar SingleCell.server.app[8] voipGeneratedThroughput:simu5g_rateavg 1165.8988137369533
scalar SingleCell.server.app[9] voipGeneratedThroughput:simu5g_rateavg 929.15084654489488
scalar SingleCell.server.app[10] voipGeneratedThroughput:simu5g_rateavg 950.52328671696262
scalar SingleCell.server.app[11] voipGeneratedThroughput:simu5g_rateavg 1158.866954476317
scalar SingleCell.server.app[12] voipGeneratedThroughput:simu5g_rateavg 1369.7615239090424
scalar SingleCell.server.app[13] voipGeneratedThroughput:simu5g_rateavg 1188.1751571365187
scalar SingleCell.server.app[14] voipGeneratedThroughput:simu5g_rateavg 1101.995953507804
scalar SingleCell.server.app[15] voipGeneratedThroughput:simu5g_rateavg 1101.9266258392292
scalar SingleCell.server.app[16] voipGeneratedThroughput:simu5g_rateavg 973.4140010100914
scalar SingleCell.server.app[17] voipGeneratedThroughput:simu5g_rateavg 516.99795632666132
scalar SingleCell.server.app[18] voipGeneratedThroughput:simu5g_rateavg 1006.1502652964219
scalar SingleCell.server.app[19] voipGeneratedThroughput:simu5g_rateavg 788.20413070254267
scalar SingleCell.server.app[20] voipGeneratedThroughput:simu5g_rateavg 751.12902956101641
scalar SingleCell.server.app[21] voipGeneratedThroughput:simu5g_rateavg 358.41198208950368
scalar SingleCell.server.app[22] voipGeneratedThroughput:simu5g_rateavg 744.16601996568068
scalar SingleCell.server.app[23] voipGeneratedThroughput:simu5g_rateavg 1408.4106278048769
scalar SingleCell.server.app[24] voipGeneratedThroughput:simu5g_rateavg 1243.1697496168124
scalar SingleCell.server.app[25] voipGeneratedThroughput:simu5g_rateavg 1307.0459066122905
scalar SingleCell.server.app[26] voipGeneratedThroughput:simu5g_rateavg 621.26737809601013
scalar SingleCell.server.app[27] voipGeneratedThroughput:simu5g_rateavg 515.19662962504538
scalar SingleCell.server.app[28] voipGeneratedThroughput:simu5g_rateavg 1139.9041475434171
scalar SingleCell.server.app[29] voipGeneratedThroughput:simu5g_rateavg 436.89391041207847
scalar SingleCell.server.app[30] voipGeneratedThroughput:simu5g_rateavg 652.14961058387337
scalar SingleCell.server.app[31] voipGeneratedThroughput:simu5g_rateavg 1011.1962265713215
scalar SingleCell.server.app[32] voipGeneratedThroughput:simu5g_rateavg 1288.7441401489532
scalar SingleCell.server.app[33] voipGeneratedThroughput:simu5g_rateavg 1046.7563047545405
scalar SingleCell.server.app[34] voipGeneratedThroughput:simu5g_rateavg 1046.8621685761536
scalar SingleCell.server.app[35] voipGeneratedThroughput:simu5g_rateavg 304.86887678137242
scalar SingleCell.server.app[36] voipGeneratedThroughput:simu5g_rateavg 844.02171043809153
scalar SingleCell.server.app[37] voipGeneratedThroughput:simu5g_rateavg 747.88381067409694
scalar SingleCell.server.app[38] voipGeneratedThroughput:simu5g_rateavg 1212.1333726111011
scalar SingleCell.server.app[39] voipGeneratedThroughput:simu5g_rateavg 703.70547811622509
scalar SingleCell.server.app[40] voipGeneratedThroughput:simu5g_rateavg 631.31962200104658
scalar SingleCell.server.app[41] voipGeneratedThroughput:simu5g_rateavg 928.06356718167615
scalar SingleCell.server.app[42] voipGeneratedThroughput:simu5g_rateavg 809.26297291023877
scalar SingleCell.server.app[43] voipGeneratedThroughput:simu5g_rateavg 639.42271519888448
scalar SingleCell.server.app[44] voipGeneratedThroughput:simu5g_rateavg 784.11051245664692
scalar SingleCell.server.app[45] voipGeneratedThroughput:simu5g_rateavg 1308.8379768946304
scalar SingleCell.server.app[46] voipGeneratedThroughput:simu5g_rateavg 544.16035939712492
scalar SingleCell.server.app[47] voipGeneratedThroughput:simu5g_rateavg 1092.572480090208
scalar SingleCell.server.app[48] voipGeneratedThroughput:simu5g_rateavg 592.72576932345089
scalar SingleCell.server.app[49] voipGeneratedThroughput:simu5g_rateavg 664.82723871918699
scalar SingleCell.router.lo[0].lo rcvdPkFromHl:count 0
scalar SingleCell.router.lo[0].lo rcvdPkFromHl:sum(packetBytes) 0
scalar SingleCell.router.lo[0].lo passedUpPk:count 0
scalar SingleCell.router.lo[0].lo passedUpPk:sum(packetBytes) 0
scalar SingleCell.router.lo[0] packetDropInterfaceDown:count 0
scalar SingleCell.router.lo[0] packetDropInterfaceDown:sum(packetBytes) 0
scalar SingleCell.router.lo[0] packetDropNoCarrier:count 0
scalar SingleCell.router.lo[0] packetDropNoCarrier:sum(packetBytes) 0
scalar SingleCell.router.ppp[0].queue queueLength:last 0
scalar SingleCell.router.ppp[0].queue queueLength:max 0
scalar SingleCell.router.ppp[0].queue queueLength:timeavg 0
scalar SingleCell.router.ppp[0].queue queueBitLength:last 0
scalar SingleCell.router.ppp[0].queue queueBitLength:max 0
scalar SingleCell.router.ppp[0].queue queueBitLength:timeavg 0
scalar SingleCell.router.ppp[0].queue outgoingPackets:count 15161
scalar SingleCell.router.ppp[0].queue outgoingPacketLengths:sum 6792128
scalar SingleCell.router.ppp[0].queue incomingPackets:count 15161
scalar SingleCell.router.ppp[0].queue incomingPacketLengths:sum 6792128
scalar SingleCell.router.ppp[0].queue droppedPacketsQueueOverflow:count 0
scalar SingleCell.router.ppp[0].queue droppedPacketLengthsQueueOverflow:sum 0
scalar SingleCell.router.ppp[0].ppp transmissionState:timeavg 7.6411439999973357e-05
scalar SingleCell.router.ppp[0].ppp rxPkOk:count 15207
scalar SingleCell.router.ppp[0].ppp rxPkOk:sum(packetBytes) 988455
scalar SingleCell.router.ppp[0].ppp txPk:count 15161
scalar SingleCell.router.ppp[0].ppp txPk:sum(packetBytes) 955143
scalar SingleCell.router.ppp[0].ppp rcvdPkFromHl:count 15161
scalar SingleCell.router.ppp[0].ppp rcvdPkFromHl:sum(packetBytes) 849016
scalar SingleCell.router.ppp[0].ppp passedUpPk:count 15207
scalar SingleCell.router.ppp[0].ppp passedUpPk:sum(packetBytes) 882006
scalar SingleCell.router.ppp[0].ppp packetDropIncorrectlyReceived:count 0
scalar SingleCell.router.ppp[0].ppp packetDropIncorrectlyReceived:sum(packetBytes) 0
scalar SingleCell.router.ppp[0].ppp packetDropInterfaceDown:count 0
scalar SingleCell.router.ppp[0].ppp packetDropInterfaceDown:sum(packetBytes) 0
scalar SingleCell.router.ppp[0] packetDropInterfaceDown:count 0
scalar SingleCell.router.ppp[0] packetDropInterfaceDown:sum(packetBytes) 0
scalar SingleCell.router.ppp[0] packetDropNoCarrier:count 0
scalar SingleCell.router.ppp[0] packetDropNoCarrier:sum(packetBytes) 0
scalar SingleCell.router.ppp[1].queue queueLength:last 0
scalar SingleCell.router.ppp[1].queue queueLength:max 0
scalar SingleCell.router.ppp[1].queue queueLength:timeavg 0
scalar SingleCell.router.ppp[1].queue queueBitLength:last 0
scalar SingleCell.router.ppp[1].queue queueBitLength:max 0
scalar SingleCell.router.ppp[1].queue queueBitLength:timeavg 0
scalar SingleCell.router.ppp[1].queue outgoingPackets:count 15207
scalar SingleCell.router.ppp[1].queue outgoingPacketLengths:sum 7056048
scalar SingleCell.router.ppp[1].queue incomingPackets:count 15207
scalar SingleCell.router.ppp[1].queue incomingPacketLengths:sum 7056048
scalar SingleCell.router.ppp[1].queue droppedPacketsQueueOverflow:count 0
scalar SingleCell.router.ppp[1].queue droppedPacketLengthsQueueOverflow:sum 0
scalar SingleCell.router.ppp[1].ppp transmissionState:timeavg 7.907639999997623e-05
scalar SingleCell.router.ppp[1].ppp rxPkOk:count 15161
scalar SingleCell.router.ppp[1].ppp rxPkOk:sum(packetBytes) 955143
scalar SingleCell.router.ppp[1].ppp txPk:count 15207
scalar SingleCell.router.ppp[1].ppp txPk:sum(packetBytes) 988455
scalar SingleCell.router.ppp[1].ppp rcvdPkFromHl:count 15207
scalar SingleCell.router.ppp[1].ppp rcvdPkFromHl:sum(packetBytes) 882006
scalar SingleCell.router.ppp[1].ppp passedUpPk:count 15161
scalar SingleCell.router.ppp[1].ppp passedUpPk:sum(packetBytes) 849016
scalar SingleCell.router.ppp[1].ppp packetDropIncorrectlyReceived:count 0
scalar SingleCell.router.ppp[1].ppp packetDropIncorrectlyReceived:sum(packetBytes) 0
scalar SingleCell.router.ppp[1].ppp packetDropInterfaceDown:count 0
scalar SingleCell.router.ppp[1].ppp packetDropInterfaceDown:sum(packetBytes) 0
scalar SingleCell.router.ppp[1] packetDropInterfaceDown:count 0
scalar SingleCell.router.ppp[1] packetDropInterfaceDown:sum(packetBytes) 0
scalar SingleCell.router.ppp[1] packetDropNoCarrier:count 0
scalar SingleCell.router.ppp[1] packetDropNoCarrier:sum(packetBytes) 0
scalar SingleCell.router.ipv4.ip packetDropAddressResolutionFailed:count 0
scalar SingleCell.router.ipv4.ip packetDropAddressResolutionFailed:sum(packetBytes) 0
scalar SingleCell.router.ipv4.ip packetDropHopLimitReached:count 0
scalar SingleCell.router.ipv4.ip packetDropHopLimitReached:sum(packetBytes) 0
scalar SingleCell.router.ipv4.ip packetDropForwardingDisabled:count 0
scalar SingleCell.router.ipv4.ip packetDropForwardingDisabled:sum(packetBytes) 0
scalar SingleCell.router.ipv4.ip packetDropNoInterfaceFound:count 0
scalar SingleCell.router.ipv4.ip packetDropNoInterfaceFound:sum(packetBytes) 0
scalar SingleCell.router.ipv4.ip packetDropNoRouteFound:count 0
scalar SingleCell.router.ipv4.ip packetDropNoRouteFound:sum(packetBytes) 0
scalar SingleCell.router.ipv4.ip packetDropUndefined:count 0
scalar SingleCell.router.ipv4.ip packetDropUndefined:sum(packetBytes) 0
scalar SingleCell.router.ipv4.arp arpResolutionFailed:count 0
scalar SingleCell.router.ipv4.arp arpResolutionCompleted:count 0
scalar SingleCell.router.ipv4.arp arpResolutionInitiated:count 0
scalar SingleCell.router.ipv4.arp arpReplySent:count 0
scalar SingleCell.router.ipv4.arp arpReplySent:sum(packetBytes) 0
scalar SingleCell.router.ipv4.arp arpRequestSent:count 0
scalar SingleCell.router.ipv4.arp arpRequestSent:sum(packetBytes) 0
scalar SingleCell.pgw.lo[0].lo rcvdPkFromHl:count 0
scalar SingleCell.pgw.lo[0].lo rcvdPkFromHl:sum(packetBytes) 0
scalar SingleCell.pgw.lo[0].lo passedUpPk:count 0
scalar SingleCell.pgw.lo[0].lo passedUpPk:sum(packetBytes) 0
scalar SingleCell.pgw.lo[0] packetDropInterfaceDown:count 0
scalar SingleCell.pgw.lo[0] packetDropInterfaceDown:sum(packetBytes) 0
scalar SingleCell.pgw.lo[0] packetDropNoCarrier:count 0
scalar SingleCell.pgw.lo[0] packetDropNoCarrier:sum(packetBytes) 0
scalar SingleCell.pgw.ppp[0].queue queueLength:last 0
scalar SingleCell.pgw.ppp[0].queue queueLength:max 0
scalar SingleCell.pgw.ppp[0].queue queueLength:timeavg 0
scalar SingleCell.pgw.ppp[0].queue queueBitLength:last 0
scalar SingleCell.pgw.ppp[0].queue queueBitLength:max 0
scalar SingleCell.pgw.ppp[0].queue queueBitLength:timeavg 0
scalar SingleCell.pgw.ppp[0].queue outgoingPackets:count 15207
scalar SingleCell.pgw.ppp[0].queue outgoingPacketLengths:sum 11435664
scalar SingleCell.pgw.ppp[0].queue incomingPackets:count 15207
scalar SingleCell.pgw.ppp[0].queue incomingPacketLengths:sum 11435664
scalar SingleCell.pgw.ppp[0].queue droppedPacketsQueueOverflow:count 0
scalar SingleCell.pgw.ppp[0].queue droppedPacketLengthsQueueOverflow:sum 0
scalar SingleCell.pgw.ppp[0].ppp transmissionState:timeavg 0.00012287256000001592
scalar SingleCell.pgw.ppp[0].ppp rxPkOk:count 15161
scalar SingleCell.pgw.ppp[0].ppp rxPkOk:sum(packetBytes) 1500939
scalar SingleCell.pgw.ppp[0].ppp txPk:count 15207
scalar SingleCell.pgw.ppp[0].ppp txPk:sum(packetBytes) 1535907
scalar SingleCell.pgw.ppp[0].ppp rcvdPkFromHl:count 15207
scalar SingleCell.pgw.ppp[0].ppp rcvdPkFromHl:sum(packetBytes) 1429458
scalar SingleCell.pgw.ppp[0].ppp passedUpPk:count 15161
scalar SingleCell.pgw.ppp[0].ppp passedUpPk:sum(packetBytes) 1394812
scalar SingleCell.pgw.ppp[0].ppp packetDropIncorrectlyReceived:count 0
scalar SingleCell.pgw.ppp[0].ppp packetDropIncorrectlyReceived:sum(packetBytes) 0
scalar SingleCell.pgw.ppp[0].ppp packetDropInterfaceDown:count 0
scalar SingleCell.pgw.ppp[0].ppp packetDropInterfaceDown:sum(packetBytes) 0
scalar SingleCell.pgw.ppp[0] packetDropInterfaceDown:count 0
scalar SingleCell.pgw.ppp[0] packetDropInterfaceDown:sum(packetBytes) 0
scalar SingleCell.pgw.ppp[0] packetDropNoCarrier:count 0
scalar SingleCell.pgw.ppp[0] packetDropNoCarrier:sum(packetBytes) 0
scalar SingleCell.pgw.ipv4.ip packetDropAddressResolutionFailed:count 0
scalar SingleCell.pgw.ipv4.ip packetDropAddressResolutionFailed:sum(packetBytes) 0
scalar SingleCell.pgw.ipv4.ip packetDropHopLimitReached:count 0
scalar SingleCell.pgw.ipv4.ip packetDropHopLimitReached:sum(packetBytes) 0
scalar SingleCell.pgw.ipv4.ip packetDropForwardingDisabled:count 0
scalar SingleCell.pgw.ipv4.ip packetDropForwardingDisabled:sum(packetBytes) 0
scalar SingleCell.pgw.ipv4.ip packetDropNoInterfaceFound:count 0
scalar SingleCell.pgw.ipv4.ip packetDropNoInterfaceFound:sum(packetBytes) 0
scalar SingleCell.pgw.ipv4.ip packetDropNoRouteFound:count 0
scalar SingleCell.pgw.ipv4.ip packetDropNoRouteFound:sum(packetBytes) 0
scalar SingleCell.pgw.ipv4.ip packetDropUndefined:count 0
scalar SingleCell.pgw.ipv4.ip packetDropUndefined:sum(packetBytes) 0
scalar SingleCell.pgw.ipv4.arp arpResolutionFailed:count 0
scalar SingleCell.pgw.ipv4.arp arpResolutionCompleted:count 0
scalar SingleCell.pgw.ipv4.arp arpResolutionInitiated:count 0
scalar SingleCell.pgw.ipv4.arp arpReplySent:count 0
scalar SingleCell.pgw.ipv4.arp arpReplySent:sum(packetBytes) 0
scalar SingleCell.pgw.ipv4.arp arpRequestSent:count 0
scalar SingleCell.pgw.ipv4.arp arpRequestSent:sum(packetBytes) 0
scalar SingleCell.pgw.pppIf.queue queueLength:last 0
scalar SingleCell.pgw.pppIf.queue queueLength:max 0
scalar SingleCell.pgw.pppIf.queue queueLength:timeavg 0
scalar SingleCell.pgw.pppIf.queue queueBitLength:last 0
scalar SingleCell.pgw.pppIf.queue queueBitLength:max 0
scalar SingleCell.pgw.pppIf.queue queueBitLength:timeavg 0
scalar SingleCell.pgw.pppIf.queue outgoingPackets:count 15161
scalar SingleCell.pgw.pppIf.queue outgoingPacketLengths:sum 6792128
scalar SingleCell.pgw.pppIf.queue incomingPackets:count 15161
scalar SingleCell.pgw.pppIf.queue incomingPacketLengths:sum 6792128
scalar SingleCell.pgw.pppIf.queue droppedPacketsQueueOverflow:count 0
scalar SingleCell.pgw.pppIf.queue droppedPacketLengthsQueueOverflow:sum 0
scalar SingleCell.pgw.pppIf.ppp transmissionState:timeavg 7.6411439999973357e-05
scalar SingleCell.pgw.pppIf.ppp rxPkOk:count 15207
scalar SingleCell.pgw.pppIf.ppp rxPkOk:sum(packetBytes) 988455
scalar SingleCell.pgw.pppIf.ppp txPk:count 15161
scalar SingleCell.pgw.pppIf.ppp txPk:sum(packetBytes) 955143
scalar SingleCell.pgw.pppIf.ppp rcvdPkFromHl:count 15161
scalar SingleCell.pgw.pppIf.ppp rcvdPkFromHl:sum(packetBytes) 849016
scalar SingleCell.pgw.pppIf.ppp passedUpPk:count 15207
scalar SingleCell.pgw.pppIf.ppp passedUpPk:sum(packetBytes) 882006
scalar SingleCell.pgw.pppIf.ppp packetDropIncorrectlyReceived:count 0
scalar SingleCell.pgw.pppIf.ppp packetDropIncorrectlyReceived:sum(packetBytes) 0
scalar SingleCell.pgw.pppIf.ppp packetDropInterfaceDown:count 0
scalar SingleCell.pgw.pppIf.ppp packetDropInterfaceDown:sum(packetBytes) 0
scalar SingleCell.pgw.pppIf packetDropInterfaceDown:count 0
scalar SingleCell.pgw.pppIf packetDropInterfaceDown:sum(packetBytes) 0
scalar SingleCell.pgw.pppIf packetDropNoCarrier:count 0
scalar SingleCell.pgw.pppIf packetDropNoCarrier:sum(packetBytes) 0
scalar SingleCell.pgw.udp packetReceived:count 15161
scalar SingleCell.pgw.udp packetReceived:sum(packetBytes) 1091592
scalar SingleCell.pgw.udp packetSent:count 15207
scalar SingleCell.pgw.udp packetSent:sum(packetBytes) 1125318
scalar SingleCell.pgw.udp passedUpPk:count 15161
scalar SingleCell.pgw.udp droppedPkWrongPort:count 0
scalar SingleCell.pgw.udp droppedPkBadChecksum:count 0
scalar SingleCell.eNB.cellularNic.pdcp sentPacketToLowerLayer:count 15207
scalar SingleCell.eNB.cellularNic.pdcp sentPacketToLowerLayer:sum(packetBytes) 897213
scalar SingleCell.eNB.cellularNic.pdcp sentPacketToUpperLayer:count 15162
scalar SingleCell.eNB.cellularNic.pdcp sentPacketToUpperLayer:sum(packetBytes) 849072
scalar SingleCell.eNB.cellularNic.pdcp receivedPacketFromLowerLayer:count 15162
scalar SingleCell.eNB.cellularNic.pdcp receivedPacketFromLowerLayer:sum(packetBytes) 864234
scalar SingleCell.eNB.cellularNic.pdcp receivedPacketFromUpperLayer:count 15207
scalar SingleCell.eNB.cellularNic.pdcp receivedPacketFromUpperLayer:sum(packetBytes) 882006
scalar SingleCell.eNB.cellularNic.rlc.tm rlcPacketLossUl:mean -nan
scalar SingleCell.eNB.cellularNic.rlc.tm rlcPacketLossUl:sum 0
scalar SingleCell.eNB.cellularNic.rlc.tm rlcPacketLossDl:mean -nan
scalar SingleCell.eNB.cellularNic.rlc.tm rlcPacketLossDl:sum 0
scalar SingleCell.eNB.cellularNic.rlc.tm sentPacketToLowerLayer:count 0
scalar SingleCell.eNB.cellularNic.rlc.tm sentPacketToLowerLayer:sum(packetBytes) 0
scalar SingleCell.eNB.cellularNic.rlc.tm sentPacketToUpperLayer:count 0
scalar SingleCell.eNB.cellularNic.rlc.tm sentPacketToUpperLayer:sum(packetBytes) 0
scalar SingleCell.eNB.cellularNic.rlc.tm receivedPacketFromLowerLayer:count 0
scalar SingleCell.eNB.cellularNic.rlc.tm receivedPacketFromLowerLayer:sum(packetBytes) 0
scalar SingleCell.eNB.cellularNic.rlc.tm receivedPacketFromUpperLayer:count 0
scalar SingleCell.eNB.cellularNic.rlc.tm receivedPacketFromUpperLayer:sum(packetBytes) 0
scalar SingleCell.eNB.cellularNic.rlc.um rlcCellThroughputUl:simu5g_rateavg 180520.1506483774
scalar SingleCell.eNB.cellularNic.rlc.um rlcCellThroughputDl:simu5g_rateavg 180486.11371408924
scalar SingleCell.eNB.cellularNic.rlc.um rlcPduThroughputUl:simu5g_rateavg -nan
scalar SingleCell.eNB.cellularNic.rlc.um rlcPduThroughputDl:simu5g_rateavg -nan
scalar SingleCell.eNB.cellularNic.rlc.um rlcPduDelayUl:mean -nan
scalar SingleCell.eNB.cellularNic.rlc.um rlcPduDelayDl:mean -nan
scalar SingleCell.eNB.cellularNic.rlc.um rlcThroughputUl:simu5g_rateavg -nan
scalar SingleCell.eNB.cellularNic.rlc.um rlcThroughputDl:simu5g_rateavg -nan
scalar SingleCell.eNB.cellularNic.rlc.um rlcDelayUl:mean -nan
scalar SingleCell.eNB.cellularNic.rlc.um rlcDelayDl:mean -nan
scalar SingleCell.eNB.cellularNic.rlc.um sentPacketToLowerLayer:count 15303
scalar SingleCell.eNB.cellularNic.rlc.um sentPacketToLowerLayer:sum(packetBytes) 927819
scalar SingleCell.eNB.cellularNic.rlc.um sentPacketToUpperLayer:count 15162
scalar SingleCell.eNB.cellularNic.rlc.um sentPacketToUpperLayer:sum(packetBytes) 864234
scalar SingleCell.eNB.cellularNic.rlc.um receivedPacketFromLowerLayer:count 17351
scalar SingleCell.eNB.cellularNic.rlc.um receivedPacketFromLowerLayer:sum(packetBytes) 900025
scalar SingleCell.eNB.cellularNic.rlc.um receivedPacketFromUpperLayer:count 15207
scalar SingleCell.eNB.cellularNic.rlc.um receivedPacketFromUpperLayer:sum(packetBytes) 897213
scalar SingleCell.eNB.cellularNic.rlc.am rlcPacketLossTotal:mean -nan
scalar SingleCell.eNB.cellularNic.rlc.am rlcCellThroughputUl:simu5g_rateavg -nan
scalar SingleCell.eNB.cellularNic.rlc.am rlcCellThroughputDl:simu5g_rateavg -nan
scalar SingleCell.eNB.cellularNic.rlc.am rlcPduThroughputUl:simu5g_rateavg -nan
scalar SingleCell.eNB.cellularNic.rlc.am rlcPduThroughputDl:simu5g_rateavg -nan
scalar SingleCell.eNB.cellularNic.rlc.am rlcPduDelayUl:mean -nan
scalar SingleCell.eNB.cellularNic.rlc.am rlcPduDelayDl:mean -nan
scalar SingleCell.eNB.cellularNic.rlc.am rlcThroughputUl:simu5g_rateavg -nan
scalar SingleCell.eNB.cellularNic.rlc.am rlcThroughputDl:simu5g_rateavg -nan
scalar SingleCell.eNB.cellularNic.rlc.am rlcDelayUl:mean -nan
scalar SingleCell.eNB.cellularNic.rlc.am rlcDelayDl:mean -nan
scalar SingleCell.eNB.cellularNic.rlc.am rlcPduPacketLossUl:mean -nan
scalar SingleCell.eNB.cellularNic.rlc.am rlcPduPacketLossDl:mean -nan
scalar SingleCell.eNB.cellularNic.rlc.am rlcPacketLossUl:mean -nan
scalar SingleCell.eNB.cellularNic.rlc.am rlcPacketLossDl:mean -nan
scalar SingleCell.eNB.cellularNic.rlc.am rlcCellPacketLossUl:mean -nan
scalar SingleCell.eNB.cellularNic.rlc.am rlcCellPacketLossDl:mean -nan
scalar SingleCell.eNB.cellularNic.mac avgServedBlocksUl:mean 1.9261999999999999
scalar SingleCell.eNB.cellularNic.mac avgServedBlocksDl:mean 1.5749
scalar SingleCell.eNB.cellularNic.mac harqTxAttemptsUl:mean -nan
scalar SingleCell.eNB.cellularNic.mac harqTxAttemptsDl:mean -nan
scalar SingleCell.eNB.cellularNic.mac harqErrorRate_4th_Ul:mean -nan
scalar SingleCell.eNB.cellularNic.mac harqErrorRate_4th_Dl:mean -nan
scalar SingleCell.eNB.cellularNic.mac harqErrorRate_3rd_Ul:mean -nan
scalar SingleCell.eNB.cellularNic.mac harqErrorRate_3rd_Dl:mean -nan
scalar SingleCell.eNB.cellularNic.mac harqErrorRate_2nd_Ul:mean -nan
scalar SingleCell.eNB.cellularNic.mac harqErrorRate_2nd_Dl:mean -nan
scalar SingleCell.eNB.cellularNic.mac harqErrorRate_1st_Ul:mean -nan
scalar SingleCell.eNB.cellularNic.mac harqErrorRate_1st_Dl:mean -nan
scalar SingleCell.eNB.cellularNic.mac harqErrorRateUl:mean -nan
scalar SingleCell.eNB.cellularNic.mac harqErrorRateDl:mean -nan
scalar SingleCell.eNB.cellularNic.mac macCellPacketLossUl:mean 0
scalar SingleCell.eNB.cellularNic.mac macCellPacketLossDl:mean 0
scalar SingleCell.eNB.cellularNic.mac macPacketLossUl:mean -nan
scalar SingleCell.eNB.cellularNic.mac macPacketLossDl:mean -nan
scalar SingleCell.eNB.cellularNic.mac macThroughputUl:simu5g_rateavg -nan
scalar SingleCell.eNB.cellularNic.mac macThroughputDl:simu5g_rateavg -nan
scalar SingleCell.eNB.cellularNic.mac macDelayUl:mean -nan
scalar SingleCell.eNB.cellularNic.mac macDelayDl:mean -nan
scalar SingleCell.eNB.cellularNic.mac macCellThroughputUl:simu5g_rateavg 194399.99224632321
scalar SingleCell.eNB.cellularNic.mac macCellThroughputDl:simu5g_rateavg 194365.3310280132
scalar SingleCell.eNB.cellularNic.mac sentPacketToLowerLayer:count 66935
scalar SingleCell.eNB.cellularNic.mac sentPacketToLowerLayer:sum(packetBytes) 1019885
scalar SingleCell.eNB.cellularNic.mac sentPacketToUpperLayer:count 32654
scalar SingleCell.eNB.cellularNic.mac sentPacketToUpperLayer:sum(packetBytes) 915328
scalar SingleCell.eNB.cellularNic.mac receivedPacketFromLowerLayer:count 132622
scalar SingleCell.eNB.cellularNic.mac receivedPacketFromLowerLayer:sum(packetBytes) 1063077
scalar SingleCell.eNB.cellularNic.mac receivedPacketFromUpperLayer:count 30510
scalar SingleCell.eNB.cellularNic.mac receivedPacketFromUpperLayer:sum(packetBytes) 1825032
scalar SingleCell.eNB.cellularNic.mac macBufferOverFlowD2D:mean -nan
scalar SingleCell.eNB.cellularNic.mac macBufferOverFlowUl:mean -nan
scalar SingleCell.eNB.cellularNic.mac macBufferOverFlowDl:mean -nan
scalar SingleCell.eNB.cellularNic.channelModel[0] measuredSinrUl:mean -nan
scalar SingleCell.eNB.cellularNic.channelModel[0] measuredSinrDl:mean -nan
scalar SingleCell.eNB.cellularNic.channelModel[0] rcvdSinrD2D:mean -nan
scalar SingleCell.eNB.cellularNic.channelModel[0] rcvdSinrUl:mean -nan
scalar SingleCell.eNB.cellularNic.channelModel[0] rcvdSinrDl:mean -nan
scalar SingleCell.eNB.cellularNic packetDropInterfaceDown:count 0
scalar SingleCell.eNB.cellularNic packetDropInterfaceDown:sum(packetBytes) 0
scalar SingleCell.eNB.cellularNic packetDropNoCarrier:count 0
scalar SingleCell.eNB.cellularNic packetDropNoCarrier:sum(packetBytes) 0
scalar SingleCell.eNB.pppIf.queue queueLength:last 0
scalar SingleCell.eNB.pppIf.queue queueLength:max 18
scalar SingleCell.eNB.pppIf.queue queueLength:timeavg 9.611712000000783e-05
scalar SingleCell.eNB.pppIf.queue queueBitLength:last 0
scalar SingleCell.eNB.pppIf.queue queueBitLength:max 13248
scalar SingleCell.eNB.pppIf.queue queueBitLength:timeavg 0.07074220032000389
scalar SingleCell.eNB.pppIf.queue outgoingPackets:count 15162
scalar SingleCell.eNB.pppIf.queue outgoingPacketLengths:sum 11159232
scalar SingleCell.eNB.pppIf.queue incomingPackets:count 15162
scalar SingleCell.eNB.pppIf.queue incomingPacketLengths:sum 11159232
scalar SingleCell.eNB.pppIf.queue droppedPacketsQueueOverflow:count 0
scalar SingleCell.eNB.pppIf.queue droppedPacketLengthsQueueOverflow:sum 0
scalar SingleCell.eNB.pppIf.ppp transmissionState:timeavg 0.00012007511999998406
scalar SingleCell.eNB.pppIf.ppp rxPkOk:count 15207
scalar SingleCell.eNB.pppIf.ppp rxPkOk:sum(packetBytes) 1535907
scalar SingleCell.eNB.pppIf.ppp txPk:count 15162
scalar SingleCell.eNB.pppIf.ppp txPk:sum(packetBytes) 1501038
scalar SingleCell.eNB.pppIf.ppp rcvdPkFromHl:count 15162
scalar SingleCell.eNB.pppIf.ppp rcvdPkFromHl:sum(packetBytes) 1394904
scalar SingleCell.eNB.pppIf.ppp passedUpPk:count 15207
scalar SingleCell.eNB.pppIf.ppp passedUpPk:sum(packetBytes) 1429458
scalar SingleCell.eNB.pppIf.ppp packetDropIncorrectlyReceived:count 0
scalar SingleCell.eNB.pppIf.ppp packetDropIncorrectlyReceived:sum(packetBytes) 0
scalar SingleCell.eNB.pppIf.ppp packetDropInterfaceDown:count 0
scalar SingleCell.eNB.pppIf.ppp packetDropInterfaceDown:sum(packetBytes) 0
scalar SingleCell.eNB.pppIf packetDropInterfaceDown:count 0
scalar SingleCell.eNB.pppIf packetDropInterfaceDown:sum(packetBytes) 0
scalar SingleCell.eNB.pppIf packetDropNoCarrier:count 0
scalar SingleCell.eNB.pppIf packetDropNoCarrier:sum(packetBytes) 0
scalar SingleCell.eNB.pppMEHostIf.queue queueLength:last 0
scalar SingleCell.eNB.pppMEHostIf.queue queueLength:max 0
scalar SingleCell.eNB.pppMEHostIf.queue queueLength:timeavg 0
scalar SingleCell.eNB.pppMEHostIf.queue queueBitLength:last 0
scalar SingleCell.eNB.pppMEHostIf.queue queueBitLength:max 0
scalar SingleCell.eNB.pppMEHostIf.queue queueBitLength:timeavg 0
scalar SingleCell.eNB.pppMEHostIf.queue outgoingPackets:count 0
scalar SingleCell.eNB.pppMEHostIf.queue outgoingPacketLengths:sum 0
scalar SingleCell.eNB.pppMEHostIf.queue incomingPackets:count 0
scalar SingleCell.eNB.pppMEHostIf.queue incomingPacketLengths:sum 0
scalar SingleCell.eNB.pppMEHostIf.queue droppedPacketsQueueOverflow:count 0
scalar SingleCell.eNB.pppMEHostIf.queue droppedPacketLengthsQueueOverflow:sum 0
scalar SingleCell.eNB.pppMEHostIf.ppp transmissionState:timeavg 0
scalar SingleCell.eNB.pppMEHostIf.ppp rxPkOk:count 0
scalar SingleCell.eNB.pppMEHostIf.ppp rxPkOk:sum(packetBytes) 0
scalar SingleCell.eNB.pppMEHostIf.ppp txPk:count 0
scalar SingleCell.eNB.pppMEHostIf.ppp txPk:sum(packetBytes) 0
scalar SingleCell.eNB.pppMEHostIf.ppp rcvdPkFromHl:count 0
scalar SingleCell.eNB.pppMEHostIf.ppp rcvdPkFromHl:sum(packetBytes) 0
scalar SingleCell.eNB.pppMEHostIf.ppp passedUpPk:count 0
scalar SingleCell.eNB.pppMEHostIf.ppp passedUpPk:sum(packetBytes) 0
scalar SingleCell.eNB.pppMEHostIf.ppp packetDropIncorrectlyReceived:count 0
scalar SingleCell.eNB.pppMEHostIf.ppp packetDropIncorrectlyReceived:sum(packetBytes) 0
scalar SingleCell.eNB.pppMEHostIf.ppp packetDropInterfaceDown:count 0
scalar SingleCell.eNB.pppMEHostIf.ppp packetDropInterfaceDown:sum(packetBytes) 0
scalar SingleCell.eNB.pppMEHostIf packetDropInterfaceDown:count 0
scalar SingleCell.eNB.pppMEHostIf packetDropInterfaceDown:sum(packetBytes) 0
scalar SingleCell.eNB.pppMEHostIf packetDropNoCarrier:count 0
scalar SingleCell.eNB.pppMEHostIf packetDropNoCarrier:sum(packetBytes) 0
scalar SingleCell.eNB.ipv4.ip packetDropAddressResolutionFailed:count 0
scalar SingleCell.eNB.ipv4.ip packetDropAddressResolutionFailed:sum(packetBytes) 0
scalar SingleCell.eNB.ipv4.ip packetDropHopLimitReached:count 0
scalar SingleCell.eNB.ipv4.ip packetDropHopLimitReached:sum(packetBytes) 0
scalar SingleCell.eNB.ipv4.ip packetDropForwardingDisabled:count 0
scalar SingleCell.eNB.ipv4.ip packetDropForwardingDisabled:sum(packetBytes) 0
scalar SingleCell.eNB.ipv4.ip packetDropNoInterfaceFound:count 0
scalar SingleCell.eNB.ipv4.ip packetDropNoInterfaceFound:sum(packetBytes) 0
scalar SingleCell.eNB.ipv4.ip packetDropNoRouteFound:count 0
scalar SingleCell.eNB.ipv4.ip packetDropNoRouteFound:sum(packetBytes) 0
scalar SingleCell.eNB.ipv4.ip packetDropUndefined:count 0
scalar SingleCell.eNB.ipv4.ip packetDropUndefined:sum(packetBytes) 0
scalar SingleCell.eNB.ipv4.arp arpResolutionFailed:count 0
scalar SingleCell.eNB.ipv4.arp arpResolutionCompleted:count 0
scalar SingleCell.eNB.ipv4.arp arpResolutionInitiated:count 0
scalar SingleCell.eNB.ipv4.arp arpReplySent:count 0
scalar SingleCell.eNB.ipv4.arp arpReplySent:sum(packetBytes) 0
scalar SingleCell.eNB.ipv4.arp arpRequestSent:count 0
scalar SingleCell.eNB.ipv4.arp arpRequestSent:sum(packetBytes) 0
scalar SingleCell.eNB.udp packetReceived:count 15207
scalar SingleCell.eNB.udp packetReceived:sum(packetBytes) 1125318
scalar SingleCell.eNB.udp packetSent:count 15162
scalar SingleCell.eNB.udp packetSent:sum(packetBytes) 1091664
scalar SingleCell.eNB.udp passedUpPk:count 15207
scalar SingleCell.eNB.udp droppedPkWrongPort:count 0
scalar SingleCell.eNB.udp droppedPkBadChecksum:count 0
scalar SingleCell.ue[0].lo[0].lo rcvdPkFromHl:count 0
scalar SingleCell.ue[0].lo[0].lo rcvdPkFromHl:sum(packetBytes) 0
scalar SingleCell.ue[0].lo[0].lo passedUpPk:count 0
scalar SingleCell.ue[0].lo[0].lo passedUpPk:sum(packetBytes) 0
scalar SingleCell.ue[0].lo[0] packetDropInterfaceDown:count 0
scalar SingleCell.ue[0].lo[0] packetDropInterfaceDown:sum(packetBytes) 0
scalar SingleCell.ue[0].lo[0] packetDropNoCarrier:count 0
scalar SingleCell.ue[0].lo[0] packetDropNoCarrier:sum(packetBytes) 0
scalar SingleCell.ue[0].cellularNic.pdcp sentPacketToLowerLayer:count 353
scalar SingleCell.ue[0].cellularNic.pdcp sentPacketToLowerLayer:sum(packetBytes) 20121
scalar SingleCell.ue[0].cellularNic.pdcp sentPacketToUpperLayer:count 353
scalar SingleCell.ue[0].cellularNic.pdcp sentPacketToUpperLayer:sum(packetBytes) 20474
scalar SingleCell.ue[0].cellularNic.pdcp receivedPacketFromLowerLayer:count 353
scalar SingleCell.ue[0].cellularNic.pdcp receivedPacketFromLowerLayer:sum(packetBytes) 20827
scalar SingleCell.ue[0].cellularNic.pdcp receivedPacketFromUpperLayer:count 353
scalar SingleCell.ue[0].cellularNic.pdcp receivedPacketFromUpperLayer:sum(packetBytes) 19768
scalar SingleCell.ue[0].cellularNic.rlc.tm rlcPacketLossUl:mean -nan
scalar SingleCell.ue[0].cellularNic.rlc.tm rlcPacketLossUl:sum 0
scalar SingleCell.ue[0].cellularNic.rlc.tm rlcPacketLossDl:mean -nan
scalar SingleCell.ue[0].cellularNic.rlc.tm rlcPacketLossDl:sum 0
scalar SingleCell.ue[0].cellularNic.rlc.tm sentPacketToLowerLayer:count 0
scalar SingleCell.ue[0].cellularNic.rlc.tm sentPacketToLowerLayer:sum(packetBytes) 0
scalar SingleCell.ue[0].cellularNic.rlc.tm sentPacketToUpperLayer:count 0
scalar SingleCell.ue[0].cellularNic.rlc.tm sentPacketToUpperLayer:sum(packetBytes) 0
scalar SingleCell.ue[0].cellularNic.rlc.tm receivedPacketFromLowerLayer:count 0
scalar SingleCell.ue[0].cellularNic.rlc.tm receivedPacketFromLowerLayer:sum(packetBytes) 0
scalar SingleCell.ue[0].cellularNic.rlc.tm receivedPacketFromUpperLayer:count 0
scalar SingleCell.ue[0].cellularNic.rlc.tm receivedPacketFromUpperLayer:sum(packetBytes) 0
scalar SingleCell.ue[0].cellularNic.rlc.um rlcCellThroughputUl:simu5g_rateavg -nan
scalar SingleCell.ue[0].cellularNic.rlc.um rlcCellThroughputDl:simu5g_rateavg -nan
scalar SingleCell.ue[0].cellularNic.rlc.um rlcPduThroughputUl:simu5g_rateavg 0
scalar SingleCell.ue[0].cellularNic.rlc.um rlcPduThroughputDl:simu5g_rateavg 0
scalar SingleCell.ue[0].cellularNic.rlc.um rlcPduDelayUl:mean 0.0040000000000000027
scalar SingleCell.ue[0].cellularNic.rlc.um rlcPduDelayDl:mean 0.0040000000000000027
scalar SingleCell.ue[0].cellularNic.rlc.um rlcThroughputUl:simu5g_rateavg 1866.038383411829
scalar SingleCell.ue[0].cellularNic.rlc.um rlcThroughputDl:simu5g_rateavg 1945.8318066382285
scalar SingleCell.ue[0].cellularNic.rlc.um rlcDelayUl:mean 0.0094630681818181142
scalar SingleCell.ue[0].cellularNic.rlc.um rlcDelayDl:mean 0.0043893004644929316
scalar SingleCell.ue[0].cellularNic.rlc.um sentPacketToLowerLayer:count 353
scalar SingleCell.ue[0].cellularNic.rlc.um sentPacketToLowerLayer:sum(packetBytes) 20827
scalar SingleCell.ue[0].cellularNic.rlc.um sentPacketToUpperLayer:count 353
scalar SingleCell.ue[0].cellularNic.rlc.um sentPacketToUpperLayer:sum(packetBytes) 20827
scalar SingleCell.ue[0].cellularNic.rlc.um receivedPacketFromLowerLayer:count 353
scalar SingleCell.ue[0].cellularNic.rlc.um receivedPacketFromLowerLayer:sum(packetBytes) 21533
scalar SingleCell.ue[0].cellularNic.rlc.um receivedPacketFromUpperLayer:count 353
scalar SingleCell.ue[0].cellularNic.rlc.um receivedPacketFromUpperLayer:sum(packetBytes) 20121
scalar SingleCell.ue[0].cellularNic.rlc.am rlcPacketLossTotal:mean -nan
scalar SingleCell.ue[0].cellularNic.rlc.am rlcCellThroughputUl:simu5g_rateavg -nan
scalar SingleCell.ue[0].cellularNic.rlc.am rlcCellThroughputDl:simu5g_rateavg -nan
scalar SingleCell.ue[0].cellularNic.rlc.am rlcPduThroughputUl:simu5g_rateavg -nan
scalar SingleCell.ue[0].cellularNic.rlc.am rlcPduThroughputDl:simu5g_rateavg -nan
scalar SingleCell.ue[0].cellularNic.rlc.am rlcPduDelayUl:mean -nan
scalar SingleCell.ue[0].cellularNic.rlc.am rlcPduDelayDl:mean -nan
scalar SingleCell.ue[0].cellularNic.rlc.am rlcThroughputUl:simu5g_rateavg -nan
scalar SingleCell.ue[0].cellularNic.rlc.am rlcThroughputDl:simu5g_rateavg -nan
scalar SingleCell.ue[0].cellularNic.rlc.am rlcDelayUl:mean -nan
scalar SingleCell.ue[0].cellularNic.rlc.am rlcDelayDl:mean -nan
scalar SingleCell.ue[0].cellularNic.rlc.am rlcPduPacketLossUl:mean -nan
scalar SingleCell.ue[0].cellularNic.rlc.am rlcPduPacketLossDl:mean -nan
scalar SingleCell.ue[0].cellularNic.rlc.am rlcPacketLossUl:mean -nan
scalar SingleCell.ue[0].cellularNic.rlc.am rlcPacketLossDl:mean -nan
scalar SingleCell.ue[0].cellularNic.rlc.am rlcCellPacketLossUl:mean -nan
scalar SingleCell.ue[0].cellularNic.rlc.am rlcCellPacketLossDl:mean -nan
scalar SingleCell.ue[0].cellularNic.mac harqTxAttemptsUl:mean 1
scalar SingleCell.ue[0].cellularNic.mac harqTxAttemptsDl:mean 1
scalar SingleCell.ue[0].cellularNic.mac harqErrorRate_4th_Ul:mean -nan
scalar SingleCell.ue[0].cellularNic.mac harqErrorRate_4th_Dl:mean -nan
scalar SingleCell.ue[0].cellularNic.mac harqErrorRate_3rd_Ul:mean -nan
scalar SingleCell.ue[0].cellularNic.mac harqErrorRate_3rd_Dl:mean -nan
scalar SingleCell.ue[0].cellularNic.mac harqErrorRate_2nd_Ul:mean -nan
scalar SingleCell.ue[0].cellularNic.mac harqErrorRate_2nd_Dl:mean -nan
scalar SingleCell.ue[0].cellularNic.mac harqErrorRate_1st_Ul:mean 0
scalar SingleCell.ue[0].cellularNic.mac harqErrorRate_1st_Dl:mean 0
scalar SingleCell.ue[0].cellularNic.mac harqErrorRateUl:mean 0
scalar SingleCell.ue[0].cellularNic.mac harqErrorRateDl:mean 0
scalar SingleCell.ue[0].cellularNic.mac macCellPacketLossUl:mean -nan
scalar SingleCell.ue[0].cellularNic.mac macCellPacketLossDl:mean -nan
scalar SingleCell.ue[0].cellularNic.mac macPacketLossUl:mean 0
scalar SingleCell.ue[0].cellularNic.mac macPacketLossDl:mean 0
scalar SingleCell.ue[0].cellularNic.mac macThroughputUl:simu5g_rateavg 1997.0602385912041
scalar SingleCell.ue[0].cellularNic.mac macThroughputDl:simu5g_rateavg 2077.7526070882773
scalar SingleCell.ue[0].cellularNic.mac macDelayUl:mean 0.0040000000000000027
scalar SingleCell.ue[0].cellularNic.mac macDelayDl:mean 0.0040000000000000027
scalar SingleCell.ue[0].cellularNic.mac macCellThroughputUl:simu5g_rateavg -nan
scalar SingleCell.ue[0].cellularNic.mac macCellThroughputDl:simu5g_rateavg -nan
scalar SingleCell.ue[0].cellularNic.mac sentPacketToLowerLayer:count 1062
scalar SingleCell.ue[0].cellularNic.mac sentPacketToLowerLayer:sum(packetBytes) 22242
scalar SingleCell.ue[0].cellularNic.mac sentPacketToUpperLayer:count 706
scalar SingleCell.ue[0].cellularNic.mac sentPacketToUpperLayer:sum(packetBytes) 21886
scalar SingleCell.ue[0].cellularNic.mac receivedPacketFromLowerLayer:count 1414
scalar SingleCell.ue[0].cellularNic.mac receivedPacketFromLowerLayer:sum(packetBytes) 23300
scalar SingleCell.ue[0].cellularNic.mac receivedPacketFromUpperLayer:count 706
scalar SingleCell.ue[0].cellularNic.mac receivedPacketFromUpperLayer:sum(packetBytes) 40948
scalar SingleCell.ue[0].cellularNic.mac macBufferOverFlowD2D:mean -nan
scalar SingleCell.ue[0].cellularNic.mac macBufferOverFlowUl:mean -nan
scalar SingleCell.ue[0].cellularNic.mac macBufferOverFlowDl:mean -nan
scalar SingleCell.ue[0].cellularNic.phy distance:mean 133.21587653779665
scalar SingleCell.ue[0].cellularNic.phy averageCqiUl:mean 14.643059490084985
scalar SingleCell.ue[0].cellularNic.phy averageCqiUl:count 353
scalar SingleCell.ue[0].cellularNic.phy averageCqiDl:mean 14.269121813031161
scalar SingleCell.ue[0].cellularNic.phy averageCqiDl:count 353
scalar SingleCell.ue[0].cellularNic.channelModel[0] measuredSinrUl:mean 34.526871297903099
scalar SingleCell.ue[0].cellularNic.channelModel[0] measuredSinrDl:mean 47.017485451025159
scalar SingleCell.ue[0].cellularNic.channelModel[0] rcvdSinrD2D:mean -nan
scalar SingleCell.ue[0].cellularNic.channelModel[0] rcvdSinrUl:mean 37.952876395530552
scalar SingleCell.ue[0].cellularNic.channelModel[0] rcvdSinrDl:mean 46.664120972728803
scalar SingleCell.ue[0].cellularNic packetDropInterfaceDown:count 0
scalar SingleCell.ue[0].cellularNic packetDropInterfaceDown:sum(packetBytes) 0
scalar SingleCell.ue[0].cellularNic packetDropNoCarrier:count 0
scalar SingleCell.ue[0].cellularNic packetDropNoCarrier:sum(packetBytes) 0
scalar SingleCell.ue[0].encap pauseSent:count 0
scalar SingleCell.ue[0].encap pauseSent:sum 0
scalar SingleCell.ue[0].encap decapPk:count 0
scalar SingleCell.ue[0].encap decapPk:sum(packetBytes) 0
scalar SingleCell.ue[0].encap encapPk:count 0
scalar SingleCell.ue[0].encap encapPk:sum(packetBytes) 0
scalar SingleCell.ue[0].ipv4.ip packetDropAddressResolutionFailed:count 0
scalar SingleCell.ue[0].ipv4.ip packetDropAddressResolutionFailed:sum(packetBytes) 0
scalar SingleCell.ue[0].ipv4.ip packetDropHopLimitReached:count 0
scalar SingleCell.ue[0].ipv4.ip packetDropHopLimitReached:sum(packetBytes) 0
scalar SingleCell.ue[0].ipv4.ip packetDropForwardingDisabled:count 0
scalar SingleCell.ue[0].ipv4.ip packetDropForwardingDisabled:sum(packetBytes) 0
scalar SingleCell.ue[0].ipv4.ip packetDropNoInterfaceFound:count 0
scalar SingleCell.ue[0].ipv4.ip packetDropNoInterfaceFound:sum(packetBytes) 0
scalar SingleCell.ue[0].ipv4.ip packetDropNoRouteFound:count 0
scalar SingleCell.ue[0].ipv4.ip packetDropNoRouteFound:sum(packetBytes) 0
scalar SingleCell.ue[0].ipv4.ip packetDropUndefined:count 0
scalar SingleCell.ue[0].ipv4.ip packetDropUndefined:sum(packetBytes) 0
scalar SingleCell.ue[0].ipv4.arp arpResolutionFailed:count 0
scalar SingleCell.ue[0].ipv4.arp arpResolutionCompleted:count 0
scalar SingleCell.ue[0].ipv4.arp arpResolutionInitiated:count 0
scalar SingleCell.ue[0].ipv4.arp arpReplySent:count 0
scalar SingleCell.ue[0].ipv4.arp arpReplySent:sum(packetBytes) 0
scalar SingleCell.ue[0].ipv4.arp arpRequestSent:count 0
scalar SingleCell.ue[0].ipv4.arp arpRequestSent:sum(packetBytes) 0
scalar SingleCell.ue[0].udp packetReceived:count 353
scalar SingleCell.ue[0].udp packetReceived:sum(packetBytes) 13414
scalar SingleCell.ue[0].udp packetSent:count 0
scalar SingleCell.ue[0].udp packetSent:sum(packetBytes) 0
scalar SingleCell.ue[0].udp passedUpPk:count 0
scalar SingleCell.ue[0].udp droppedPkWrongPort:count 353
scalar SingleCell.ue[0].udp droppedPkBadChecksum:count 0
scalar SingleCell.ue[1].lo[0].lo rcvdPkFromHl:count 0
scalar SingleCell.ue[1].lo[0].lo rcvdPkFromHl:sum(packetBytes) 0
scalar SingleCell.ue[1].lo[0].lo passedUpPk:count 0
scalar SingleCell.ue[1].lo[0].lo passedUpPk:sum(packetBytes) 0
scalar SingleCell.ue[1].lo[0] packetDropInterfaceDown:count 0
scalar SingleCell.ue[1].lo[0] packetDropInterfaceDown:sum(packetBytes) 0
scalar SingleCell.ue[1].lo[0] packetDropNoCarrier:count 0
scalar SingleCell.ue[1].lo[0] packetDropNoCarrier:sum(packetBytes) 0
scalar SingleCell.ue[1].cellularNic.pdcp sentPacketToLowerLayer:count 415
scalar SingleCell.ue[1].cellularNic.pdcp sentPacketToLowerLayer:sum(packetBytes) 23655
scalar SingleCell.ue[1].cellularNic.pdcp sentPacketToUpperLayer:count 415
scalar SingleCell.ue[1].cellularNic.pdcp sentPacketToUpperLayer:sum(packetBytes) 24070
scalar SingleCell.ue[1].cellularNic.pdcp receivedPacketFromLowerLayer:count 415
scalar SingleCell.ue[1].cellularNic.pdcp receivedPacketFromLowerLayer:sum(packetBytes) 24485
scalar SingleCell.ue[1].cellularNic.pdcp receivedPacketFromUpperLayer:count 415
scalar SingleCell.ue[1].cellularNic.pdcp receivedPacketFromUpperLayer:sum(packetBytes) 23240
scalar SingleCell.ue[1].cellularNic.rlc.tm rlcPacketLossUl:mean -nan
scalar SingleCell.ue[1].cellularNic.rlc.tm rlcPacketLossUl:sum 0
scalar SingleCell.ue[1].cellularNic.rlc.tm rlcPacketLossDl:mean -nan
scalar SingleCell.ue[1].cellularNic.rlc.tm rlcPacketLossDl:sum 0
scalar SingleCell.ue[1].cellularNic.rlc.tm sentPacketToLowerLayer:count 0
scalar SingleCell.ue[1].cellularNic.rlc.tm sentPacketToLowerLayer:sum(packetBytes) 0
scalar SingleCell.ue[1].cellularNic.rlc.tm sentPacketToUpperLayer:count 0
scalar SingleCell.ue[1].cellularNic.rlc.tm sentPacketToUpperLayer:sum(packetBytes) 0
scalar SingleCell.ue[1].cellularNic.rlc.tm receivedPacketFromLowerLayer:count 0
scalar SingleCell.ue[1].cellularNic.rlc.tm receivedPacketFromLowerLayer:sum(packetBytes) 0
scalar SingleCell.ue[1].cellularNic.rlc.tm receivedPacketFromUpperLayer:count 0
scalar SingleCell.ue[1].cellularNic.rlc.tm receivedPacketFromUpperLayer:sum(packetBytes) 0
scalar SingleCell.ue[1].cellularNic.rlc.um rlcCellThroughputUl:simu5g_rateavg -nan
scalar SingleCell.ue[1].cellularNic.rlc.um rlcCellThroughputDl:simu5g_rateavg -nan
scalar SingleCell.ue[1].cellularNic.rlc.um rlcPduThroughputUl:simu5g_rateavg 0
scalar SingleCell.ue[1].cellularNic.rlc.um rlcPduThroughputDl:simu5g_rateavg 0
scalar SingleCell.ue[1].cellularNic.rlc.um rlcPduDelayUl:mean 0.0044819277108433773
scalar SingleCell.ue[1].cellularNic.rlc.um rlcPduDelayDl:mean 0.004130120481927714
scalar SingleCell.ue[1].cellularNic.rlc.um rlcThroughputUl:simu5g_rateavg 2255.7214529066559
scalar SingleCell.ue[1].cellularNic.rlc.um rlcThroughputDl:simu5g_rateavg 2369.6198033176324
scalar SingleCell.ue[1].cellularNic.rlc.um rlcDelayUl:mean 0.015704600484261706
scalar SingleCell.ue[1].cellularNic.rlc.um rlcDelayDl:mean 0.0046035584113204931
scalar SingleCell.ue[1].cellularNic.rlc.um sentPacketToLowerLayer:count 416
scalar SingleCell.ue[1].cellularNic.rlc.um sentPacketToLowerLayer:sum(packetBytes) 24430
scalar SingleCell.ue[1].cellularNic.rlc.um sentPacketToUpperLayer:count 415
scalar SingleCell.ue[1].cellularNic.rlc.um sentPacketToUpperLayer:sum(packetBytes) 24485
scalar SingleCell.ue[1].cellularNic.rlc.um receivedPacketFromLowerLayer:count 415
scalar SingleCell.ue[1].cellularNic.rlc.um receivedPacketFromLowerLayer:sum(packetBytes) 25315
scalar SingleCell.ue[1].cellularNic.rlc.um receivedPacketFromUpperLayer:count 415
scalar SingleCell.ue[1].cellularNic.rlc.um receivedPacketFromUpperLayer:sum(packetBytes) 23655
scalar SingleCell.ue[1].cellularNic.rlc.am rlcPacketLossTotal:mean -nan
scalar SingleCell.ue[1].cellularNic.rlc.am rlcCellThroughputUl:simu5g_rateavg -nan
scalar SingleCell.ue[1].cellularNic.rlc.am rlcCellThroughputDl:simu5g_rateavg -nan
scalar SingleCell.ue[1].cellularNic.rlc.am rlcPduThroughputUl:simu5g_rateavg -nan
scalar SingleCell.ue[1].cellularNic.rlc.am rlcPduThroughputDl:simu5g_rateavg -nan
scalar SingleCell.ue[1].cellularNic.rlc.am rlcPduDelayUl:mean -nan
scalar SingleCell.ue[1].cellularNic.rlc.am rlcPduDelayDl:mean -nan
scalar SingleCell.ue[1].cellularNic.rlc.am rlcThroughputUl:simu5g_rateavg -nan
scalar SingleCell.ue[1].cellularNic.rlc.am rlcThroughputDl:simu5g_rateavg -nan
scalar SingleCell.ue[1].cellularNic.rlc.am rlcDelayUl:mean -nan
scalar SingleCell.ue[1].cellularNic.rlc.am rlcDelayDl:mean -nan
scalar SingleCell.ue[1].cellularNic.rlc.am rlcPduPacketLossUl:mean -nan
scalar SingleCell.ue[1].cellularNic.rlc.am rlcPduPacketLossDl:mean -nan
scalar SingleCell.ue[1].cellularNic.rlc.am rlcPacketLossUl:mean -nan
scalar SingleCell.ue[1].cellularNic.rlc.am rlcPacketLossDl:mean -nan
scalar SingleCell.ue[1].cellularNic.rlc.am rlcCellPacketLossUl:mean -nan
scalar SingleCell.ue[1].cellularNic.rlc.am rlcCellPacketLossDl:mean -nan
scalar SingleCell.ue[1].cellularNic.mac harqTxAttemptsUl:mean 1.0144230769230769
scalar SingleCell.ue[1].cellularNic.mac harqTxAttemptsDl:mean 1.0217391304347827
scalar SingleCell.ue[1].cellularNic.mac harqErrorRate_4th_Ul:mean -nan
scalar SingleCell.ue[1].cellularNic.mac harqErrorRate_4th_Dl:mean -nan
scalar SingleCell.ue[1].cellularNic.mac harqErrorRate_3rd_Ul:mean -nan
scalar SingleCell.ue[1].cellularNic.mac harqErrorRate_3rd_Dl:mean -nan
scalar SingleCell.ue[1].cellularNic.mac harqErrorRate_2nd_Ul:mean 0
scalar SingleCell.ue[1].cellularNic.mac harqErrorRate_2nd_Dl:mean 0
scalar SingleCell.ue[1].cellularNic.mac harqErrorRate_1st_Ul:mean 0.014423076923076924
scalar SingleCell.ue[1].cellularNic.mac harqErrorRate_1st_Dl:mean 0.021739130434782608
scalar SingleCell.ue[1].cellularNic.mac harqErrorRateUl:mean 0.014218009478672985
scalar SingleCell.ue[1].cellularNic.mac harqErrorRateDl:mean 0.021276595744680851
scalar SingleCell.ue[1].cellularNic.mac macCellPacketLossUl:mean -nan
scalar SingleCell.ue[1].cellularNic.mac macCellPacketLossDl:mean -nan
scalar SingleCell.ue[1].cellularNic.mac macPacketLossUl:mean 0
scalar SingleCell.ue[1].cellularNic.mac macPacketLossDl:mean 0
scalar SingleCell.ue[1].cellularNic.mac macThroughputUl:simu5g_rateavg 2426.2191474072101
scalar SingleCell.ue[1].cellularNic.mac macThroughputDl:simu5g_rateavg 2530.2719933730673
scalar SingleCell.ue[1].cellularNic.mac macDelayUl:mean 0.019288461538461497
scalar SingleCell.ue[1].cellularNic.mac macDelayDl:mean 0.004130120481927714
scalar SingleCell.ue[1].cellularNic.mac macCellThroughputUl:simu5g_rateavg -nan
scalar SingleCell.ue[1].cellularNic.mac macCellThroughputDl:simu5g_rateavg -nan
scalar SingleCell.ue[1].cellularNic.mac sentPacketToLowerLayer:count 1268
scalar SingleCell.ue[1].cellularNic.mac sentPacketToLowerLayer:sum(packetBytes) 26474
scalar SingleCell.ue[1].cellularNic.mac sentPacketToUpperLayer:count 831
scalar SingleCell.ue[1].cellularNic.mac sentPacketToUpperLayer:sum(packetBytes) 25731
scalar SingleCell.ue[1].cellularNic.mac receivedPacketFromLowerLayer:count 1690
scalar SingleCell.ue[1].cellularNic.mac receivedPacketFromLowerLayer:sum(packetBytes) 27978
scalar SingleCell.ue[1].cellularNic.mac receivedPacketFromUpperLayer:count 831
scalar SingleCell.ue[1].cellularNic.mac receivedPacketFromUpperLayer:sum(packetBytes) 48085
scalar SingleCell.ue[1].cellularNic.mac macBufferOverFlowD2D:mean -nan
scalar SingleCell.ue[1].cellularNic.mac macBufferOverFlowUl:mean -nan
scalar SingleCell.ue[1].cellularNic.mac macBufferOverFlowDl:mean -nan
scalar SingleCell.ue[1].cellularNic.phy distance:mean 185.58944150636097
scalar SingleCell.ue[1].cellularNic.phy averageCqiUl:mean 13.909952606635072
scalar SingleCell.ue[1].cellularNic.phy averageCqiUl:count 422
scalar SingleCell.ue[1].cellularNic.phy averageCqiDl:mean 14.455188679245284
scalar SingleCell.ue[1].cellularNic.phy averageCqiDl:count 424
scalar SingleCell.ue[1].cellularNic.channelModel[0] measuredSinrUl:mean 32.493404891635976
scalar SingleCell.ue[1].cellularNic.channelModel[0] measuredSinrDl:mean 35.264077620319071
scalar SingleCell.ue[1].cellularNic.channelModel[0] rcvdSinrD2D:mean -nan
scalar SingleCell.ue[1].cellularNic.channelModel[0] rcvdSinrUl:mean 30.168314529293944
scalar SingleCell.ue[1].cellularNic.channelModel[0] rcvdSinrDl:mean 34.60248848599386
scalar SingleCell.ue[1].cellularNic packetDropInterfaceDown:count 0
scalar SingleCell.ue[1].cellularNic packetDropInterfaceDown:sum(packetBytes) 0
scalar SingleCell.ue[1].cellularNic packetDropNoCarrier:count 0
scalar SingleCell.ue[1].cellularNic packetDropNoCarrier:sum(packetBytes) 0
scalar SingleCell.ue[1].encap pauseSent:count 0
scalar SingleCell.ue[1].encap pauseSent:sum 0
scalar SingleCell.ue[1].encap decapPk:count 0
scalar SingleCell.ue[1].encap decapPk:sum(packetBytes) 0
scalar SingleCell.ue[1].encap encapPk:count 0
scalar SingleCell.ue[1].encap encapPk:sum(packetBytes) 0
scalar SingleCell.ue[1].ipv4.ip packetDropAddressResolutionFailed:count 0
scalar SingleCell.ue[1].ipv4.ip packetDropAddressResolutionFailed:sum(packetBytes) 0
scalar SingleCell.ue[1].ipv4.ip packetDropHopLimitReached:count 0
scalar SingleCell.ue[1].ipv4.ip packetDropHopLimitReached:sum(packetBytes) 0
scalar SingleCell.ue[1].ipv4.ip packetDropForwardingDisabled:count 0
scalar SingleCell.ue[1].ipv4.ip packetDropForwardingDisabled:sum(packetBytes) 0
scalar SingleCell.ue[1].ipv4.ip packetDropNoInterfaceFound:count 0
scalar SingleCell.ue[1].ipv4.ip packetDropNoInterfaceFound:sum(packetBytes) 0
scalar SingleCell.ue[1].ipv4.ip packetDropNoRouteFound:count 0
scalar SingleCell.ue[1].ipv4.ip packetDropNoRouteFound:sum(packetBytes) 0
scalar SingleCell.ue[1].ipv4.ip packetDropUndefined:count 0
scalar SingleCell.ue[1].ipv4.ip packetDropUndefined:sum(packetBytes) 0
scalar SingleCell.ue[1].ipv4.arp arpResolutionFailed:count 0
scalar SingleCell.ue[1].ipv4.arp arpResolutionCompleted:count 0
scalar SingleCell.ue[1].ipv4.arp arpResolutionInitiated:count 0
scalar SingleCell.ue[1].ipv4.arp arpReplySent:count 0
scalar SingleCell.ue[1].ipv4.arp arpReplySent:sum(packetBytes) 0
scalar SingleCell.ue[1].ipv4.arp arpRequestSent:count 0
scalar SingleCell.ue[1].ipv4.arp arpRequestSent:sum(packetBytes) 0
scalar SingleCell.ue[1].udp packetReceived:count 415
scalar SingleCell.ue[1].udp packetReceived:sum(packetBytes) 15770
scalar SingleCell.ue[1].udp packetSent:count 0
scalar SingleCell.ue[1].udp packetSent:sum(packetBytes) 0
scalar SingleCell.ue[1].udp passedUpPk:count 0
scalar SingleCell.ue[1].udp droppedPkWrongPort:count 415
scalar SingleCell.ue[1].udp droppedPkBadChecksum:count 0
scalar SingleCell.ue[2].lo[0].lo rcvdPkFromHl:count 0
scalar SingleCell.ue[2].lo[0].lo rcvdPkFromHl:sum(packetBytes) 0
scalar SingleCell.ue[2].lo[0].lo passedUpPk:count 0
scalar SingleCell.ue[2].lo[0].lo passedUpPk:sum(packetBytes) 0
scalar SingleCell.ue[2].lo[0] packetDropInterfaceDown:count 0
scalar SingleCell.ue[2].lo[0] packetDropInterfaceDown:sum(packetBytes) 0
scalar SingleCell.ue[2].lo[0] packetDropNoCarrier:count 0
scalar SingleCell.ue[2].lo[0] packetDropNoCarrier:sum(packetBytes) 0
scalar SingleCell.ue[2].cellularNic.pdcp sentPacketToLowerLayer:count 306
scalar SingleCell.ue[2].cellularNic.pdcp sentPacketToLowerLayer:sum(packetBytes) 17442
scalar SingleCell.ue[2].cellularNic.pdcp sentPacketToUpperLayer:count 306
scalar SingleCell.ue[2].cellularNic.pdcp sentPacketToUpperLayer:sum(packetBytes) 17748
scalar SingleCell.ue[2].cellularNic.pdcp receivedPacketFromLowerLayer:count 306
scalar SingleCell.ue[2].cellularNic.pdcp receivedPacketFromLowerLayer:sum(packetBytes) 18054
scalar SingleCell.ue[2].cellularNic.pdcp receivedPacketFromUpperLayer:count 306
scalar SingleCell.ue[2].cellularNic.pdcp receivedPacketFromUpperLayer:sum(packetBytes) 17136
scalar SingleCell.ue[2].cellularNic.rlc.tm rlcPacketLossUl:mean -nan
scalar SingleCell.ue[2].cellularNic.rlc.tm rlcPacketLossUl:sum 0
scalar SingleCell.ue[2].cellularNic.rlc.tm rlcPacketLossDl:mean -nan
scalar SingleCell.ue[2].cellularNic.rlc.tm rlcPacketLossDl:sum 0
scalar SingleCell.ue[2].cellularNic.rlc.tm sentPacketToLowerLayer:count 0
scalar SingleCell.ue[2].cellularNic.rlc.tm sentPacketToLowerLayer:sum(packetBytes) 0
scalar SingleCell.ue[2].cellularNic.rlc.tm sentPacketToUpperLayer:count 0
scalar SingleCell.ue[2].cellularNic.rlc.tm sentPacketToUpperLayer:sum(packetBytes) 0
scalar SingleCell.ue[2].cellularNic.rlc.tm receivedPacketFromLowerLayer:count 0
scalar SingleCell.ue[2].cellularNic.rlc.tm receivedPacketFromLowerLayer:sum(packetBytes) 0
scalar SingleCell.ue[2].cellularNic.rlc.tm receivedPacketFromUpperLayer:count 0
scalar SingleCell.ue[2].cellularNic.rlc.tm receivedPacketFromUpperLayer:sum(packetBytes) 0
scalar SingleCell.ue[2].cellularNic.rlc.um rlcCellThroughputUl:simu5g_rateavg -nan
scalar SingleCell.ue[2].cellularNic.rlc.um rlcCellThroughputDl:simu5g_rateavg -nan
scalar SingleCell.ue[2].cellularNic.rlc.um rlcPduThroughputUl:simu5g_rateavg 0
scalar SingleCell.ue[2].cellularNic.rlc.um rlcPduThroughputDl:simu5g_rateavg 0
scalar SingleCell.ue[2].cellularNic.rlc.um rlcPduDelayUl:mean 0.0040000000000000027
scalar SingleCell.ue[2].cellularNic.rlc.um rlcPduDelayDl:mean 0.0040588235294117675
scalar SingleCell.ue[2].cellularNic.rlc.um rlcThroughputUl:simu5g_rateavg 1151.3528227070228
scalar SingleCell.ue[2].cellularNic.rlc.um rlcThroughputDl:simu5g_rateavg 1203.6555865530256
scalar SingleCell.ue[2].cellularNic.rlc.um rlcDelayUl:mean 0.0097287581699345756
scalar SingleCell.ue[2].cellularNic.rlc.um rlcDelayDl:mean 0.0048165852107320039
scalar SingleCell.ue[2].cellularNic.rlc.um sentPacketToLowerLayer:count 305
scalar SingleCell.ue[2].cellularNic.rlc.um sentPacketToLowerLayer:sum(packetBytes) 18052
scalar SingleCell.ue[2].cellularNic.rlc.um sentPacketToUpperLayer:count 306
scalar SingleCell.ue[2].cellularNic.rlc.um sentPacketToUpperLayer:sum(packetBytes) 18054
scalar SingleCell.ue[2].cellularNic.rlc.um receivedPacketFromLowerLayer:count 306
scalar SingleCell.ue[2].cellularNic.rlc.um receivedPacketFromLowerLayer:sum(packetBytes) 18666
scalar SingleCell.ue[2].cellularNic.rlc.um receivedPacketFromUpperLayer:count 306
scalar SingleCell.ue[2].cellularNic.rlc.um receivedPacketFromUpperLayer:sum(packetBytes) 17442
scalar SingleCell.ue[2].cellularNic.rlc.am rlcPacketLossTotal:mean -nan
scalar SingleCell.ue[2].cellularNic.rlc.am rlcCellThroughputUl:simu5g_rateavg -nan
scalar SingleCell.ue[2].cellularNic.rlc.am rlcCellThroughputDl:simu5g_rateavg -nan
scalar SingleCell.ue[2].cellularNic.rlc.am rlcPduThroughputUl:simu5g_rateavg -nan
scalar SingleCell.ue[2].cellularNic.rlc.am rlcPduThroughputDl:simu5g_rateavg -nan
scalar SingleCell.ue[2].cellularNic.rlc.am rlcPduDelayUl:mean -nan
scalar SingleCell.ue[2].cellularNic.rlc.am rlcPduDelayDl:mean -nan
scalar SingleCell.ue[2].cellularNic.rlc.am rlcThroughputUl:simu5g_rateavg -nan
scalar SingleCell.ue[2].cellularNic.rlc.am rlcThroughputDl:simu5g_rateavg -nan
scalar SingleCell.ue[2].cellularNic.rlc.am rlcDelayUl:mean -nan
scalar SingleCell.ue[2].cellularNic.rlc.am rlcDelayDl:mean -nan
scalar SingleCell.ue[2].cellularNic.rlc.am rlcPduPacketLossUl:mean -nan
scalar SingleCell.ue[2].cellularNic.rlc.am rlcPduPacketLossDl:mean -nan
scalar SingleCell.ue[2].cellularNic.rlc.am rlcPacketLossUl:mean -nan
scalar SingleCell.ue[2].cellularNic.rlc.am rlcPacketLossDl:mean -nan
scalar SingleCell.ue[2].cellularNic.rlc.am rlcCellPacketLossUl:mean -nan
scalar SingleCell.ue[2].cellularNic.rlc.am rlcCellPacketLossDl:mean -nan
scalar SingleCell.ue[2].cellularNic.mac harqTxAttemptsUl:mean 1
scalar SingleCell.ue[2].cellularNic.mac harqTxAttemptsDl:mean 1.0098039215686274
scalar SingleCell.ue[2].cellularNic.mac harqErrorRate_4th_Ul:mean -nan
scalar SingleCell.ue[2].cellularNic.mac harqErrorRate_4th_Dl:mean -nan
scalar SingleCell.ue[2].cellularNic.mac harqErrorRate_3rd_Ul:mean -nan
scalar SingleCell.ue[2].cellularNic.mac harqErrorRate_3rd_Dl:mean -nan
scalar SingleCell.ue[2].cellularNic.mac harqErrorRate_2nd_Ul:mean -nan
scalar SingleCell.ue[2].cellularNic.mac harqErrorRate_2nd_Dl:mean 0
scalar SingleCell.ue[2].cellularNic.mac harqErrorRate_1st_Ul:mean 0
scalar SingleCell.ue[2].cellularNic.mac harqErrorRate_1st_Dl:mean 0.0098039215686274508
scalar SingleCell.ue[2].cellularNic.mac harqErrorRateUl:mean 0
scalar SingleCell.ue[2].cellularNic.mac harqErrorRateDl:mean 0.0097087378640776691
scalar SingleCell.ue[2].cellularNic.mac macCellPacketLossUl:mean -nan
scalar SingleCell.ue[2].cellularNic.mac macCellPacketLossDl:mean -nan
scalar SingleCell.ue[2].cellularNic.mac macPacketLossUl:mean 0
scalar SingleCell.ue[2].cellularNic.mac macPacketLossDl:mean 0
scalar SingleCell.ue[2].cellularNic.mac macThroughputUl:simu5g_rateavg 1232.0727955853638
scalar SingleCell.ue[2].cellularNic.mac macThroughputDl:simu5g_rateavg 1285.259355132893
scalar SingleCell.ue[2].cellularNic.mac macDelayUl:mean 0.0040000000000000027
scalar SingleCell.ue[2].cellularNic.mac macDelayDl:mean 0.0040588235294117675
scalar SingleCell.ue[2].cellularNic.mac macCellThroughputUl:simu5g_rateavg -nan
scalar SingleCell.ue[2].cellularNic.mac macCellThroughputDl:simu5g_rateavg -nan
scalar SingleCell.ue[2].cellularNic.mac sentPacketToLowerLayer:count 926
scalar SingleCell.ue[2].cellularNic.mac sentPacketToLowerLayer:sum(packetBytes) 19283
scalar SingleCell.ue[2].cellularNic.mac sentPacketToUpperLayer:count 611
scalar SingleCell.ue[2].cellularNic.mac sentPacketToUpperLayer:sum(packetBytes) 18971
scalar SingleCell.ue[2].cellularNic.mac receivedPacketFromLowerLayer:count 1231
scalar SingleCell.ue[2].cellularNic.mac receivedPacketFromLowerLayer:sum(packetBytes) 20389
scalar SingleCell.ue[2].cellularNic.mac receivedPacketFromUpperLayer:count 611
scalar SingleCell.ue[2].cellularNic.mac receivedPacketFromUpperLayer:sum(packetBytes) 35494
scalar SingleCell.ue[2].cellularNic.mac macBufferOverFlowD2D:mean -nan
scalar SingleCell.ue[2].cellularNic.mac macBufferOverFlowUl:mean -nan
scalar SingleCell.ue[2].cellularNic.mac macBufferOverFlowDl:mean -nan
scalar SingleCell.ue[2].cellularNic.phy distance:mean 256.48415189632129
scalar SingleCell.ue[2].cellularNic.phy averageCqiUl:mean 13.065573770491802
scalar SingleCell.ue[2].cellularNic.phy averageCqiUl:count 305
scalar SingleCell.ue[2].cellularNic.phy averageCqiDl:mean 14.844660194174757
scalar SingleCell.ue[2].cellularNic.phy averageCqiDl:count 309
scalar SingleCell.ue[2].cellularNic.channelModel[0] measuredSinrUl:mean 27.903857174791803
scalar SingleCell.ue[2].cellularNic.channelModel[0] measuredSinrDl:mean 41.677528629334326
scalar SingleCell.ue[2].cellularNic.channelModel[0] rcvdSinrD2D:mean -nan
scalar SingleCell.ue[2].cellularNic.channelModel[0] rcvdSinrUl:mean 30.824871719389925
scalar SingleCell.ue[2].cellularNic.channelModel[0] rcvdSinrDl:mean 42.532514410474434
scalar SingleCell.ue[2].cellularNic packetDropInterfaceDown:count 0
scalar SingleCell.ue[2].cellularNic packetDropInterfaceDown:sum(packetBytes) 0
scalar SingleCell.ue[2].cellularNic packetDropNoCarrier:count 0
scalar SingleCell.ue[2].cellularNic packetDropNoCarrier:sum(packetBytes) 0
scalar SingleCell.ue[2].encap pauseSent:count 0
scalar SingleCell.ue[2].encap pauseSent:sum 0
scalar SingleCell.ue[2].encap decapPk:count 0
scalar SingleCell.ue[2].encap decapPk:sum(packetBytes) 0
scalar SingleCell.ue[2].encap encapPk:count 0
scalar SingleCell.ue[2].encap encapPk:sum(packetBytes) 0
scalar SingleCell.ue[2].ipv4.ip packetDropAddressResolutionFailed:count 0
scalar SingleCell.ue[2].ipv4.ip packetDropAddressResolutionFailed:sum(packetBytes) 0
scalar SingleCell.ue[2].ipv4.ip packetDropHopLimitReached:count 0
scalar SingleCell.ue[2].ipv4.ip packetDropHopLimitReached:sum(packetBytes) 0
scalar SingleCell.ue[2].ipv4.ip packetDropForwardingDisabled:count 0
scalar SingleCell.ue[2].ipv4.ip packetDropForwardingDisabled:sum(packetBytes) 0
scalar SingleCell.ue[2].ipv4.ip packetDropNoInterfaceFound:count 0
scalar SingleCell.ue[2].ipv4.ip packetDropNoInterfaceFound:sum(packetBytes) 0
scalar SingleCell.ue[2].ipv4.ip packetDropNoRouteFound:count 0
scalar SingleCell.ue[2].ipv4.ip packetDropNoRouteFound:sum(packetBytes) 0
scalar SingleCell.ue[2].ipv4.ip packetDropUndefined:count 0
scalar SingleCell.ue[2].ipv4.ip packetDropUndefined:sum(packetBytes) 0
scalar SingleCell.ue[2].ipv4.arp arpResolutionFailed:count 0
scalar SingleCell.ue[2].ipv4.arp arpResolutionCompleted:count 0
scalar SingleCell.ue[2].ipv4.arp arpResolutionInitiated:count 0
scalar SingleCell.ue[2].ipv4.arp arpReplySent:count 0
scalar SingleCell.ue[2].ipv4.arp arpReplySent:sum(packetBytes) 0
scalar SingleCell.ue[2].ipv4.arp arpRequestSent:count 0
scalar SingleCell.ue[2].ipv4.arp arpRequestSent:sum(packetBytes) 0
scalar SingleCell.ue[2].udp packetReceived:count 306
scalar SingleCell.ue[2].udp packetReceived:sum(packetBytes) 11628
scalar SingleCell.ue[2].udp packetSent:count 0
scalar SingleCell.ue[2].udp packetSent:sum(packetBytes) 0
scalar SingleCell.ue[2].udp passedUpPk:count 0
scalar SingleCell.ue[2].udp droppedPkWrongPort:count 306
scalar SingleCell.ue[2].udp droppedPkBadChecksum:count 0
scalar SingleCell.ue[3].lo[0].lo rcvdPkFromHl:count 0
scalar SingleCell.ue[3].lo[0].lo rcvdPkFromHl:sum(packetBytes) 0
scalar SingleCell.ue[3].lo[0].lo passedUpPk:count 0
scalar SingleCell.ue[3].lo[0].lo passedUpPk:sum(packetBytes) 0
scalar SingleCell.ue[3].lo[0] packetDropInterfaceDown:count 0
scalar SingleCell.ue[3].lo[0] packetDropInterfaceDown:sum(packetBytes) 0
scalar SingleCell.ue[3].lo[0] packetDropNoCarrier:count 0
scalar SingleCell.ue[3].lo[0] packetDropNoCarrier:sum(packetBytes) 0
scalar SingleCell.ue[3].cellularNic.pdcp sentPacketToLowerLayer:count 210
scalar SingleCell.ue[3].cellularNic.pdcp sentPacketToLowerLayer:sum(packetBytes) 11970
scalar SingleCell.ue[3].cellularNic.pdcp sentPacketToUpperLayer:count 210
scalar SingleCell.ue[3].cellularNic.pdcp sentPacketToUpperLayer:sum(packetBytes) 12180
scalar SingleCell.ue[3].cellularNic.pdcp receivedPacketFromLowerLayer:count 210
scalar SingleCell.ue[3].cellularNic.pdcp receivedPacketFromLowerLayer:sum(packetBytes) 12390
scalar SingleCell.ue[3].cellularNic.pdcp receivedPacketFromUpperLayer:count 210
scalar SingleCell.ue[3].cellularNic.pdcp receivedPacketFromUpperLayer:sum(packetBytes) 11760
scalar SingleCell.ue[3].cellularNic.rlc.tm rlcPacketLossUl:mean -nan
scalar SingleCell.ue[3].cellularNic.rlc.tm rlcPacketLossUl:sum 0
scalar SingleCell.ue[3].cellularNic.rlc.tm rlcPacketLossDl:mean -nan
scalar SingleCell.ue[3].cellularNic.rlc.tm rlcPacketLossDl:sum 0
scalar SingleCell.ue[3].cellularNic.rlc.tm sentPacketToLowerLayer:count 0
scalar SingleCell.ue[3].cellularNic.rlc.tm sentPacketToLowerLayer:sum(packetBytes) 0
scalar SingleCell.ue[3].cellularNic.rlc.tm sentPacketToUpperLayer:count 0
scalar SingleCell.ue[3].cellularNic.rlc.tm sentPacketToUpperLayer:sum(packetBytes) 0
scalar SingleCell.ue[3].cellularNic.rlc.tm receivedPacketFromLowerLayer:count 0
scalar SingleCell.ue[3].cellularNic.rlc.tm receivedPacketFromLowerLayer:sum(packetBytes) 0
scalar SingleCell.ue[3].cellularNic.rlc.tm receivedPacketFromUpperLayer:count 0
scalar SingleCell.ue[3].cellularNic.rlc.tm receivedPacketFromUpperLayer:sum(packetBytes) 0
scalar SingleCell.ue[3].cellularNic.rlc.um rlcCellThroughputUl:simu5g_rateavg -nan
scalar SingleCell.ue[3].cellularNic.rlc.um rlcCellThroughputDl:simu5g_rateavg -nan
scalar SingleCell.ue[3].cellularNic.rlc.um rlcPduThroughputUl:simu5g_rateavg 0
scalar SingleCell.ue[3].cellularNic.rlc.um rlcPduThroughputDl:simu5g_rateavg 0
scalar SingleCell.ue[3].cellularNic.rlc.um rlcPduDelayUl:mean 0.0042985074626865705
scalar SingleCell.ue[3].cellularNic.rlc.um rlcPduDelayDl:mean 0.0040571428571428599
scalar SingleCell.ue[3].cellularNic.rlc.um rlcThroughputUl:simu5g_rateavg 1939.5626888747111
scalar SingleCell.ue[3].cellularNic.rlc.um rlcThroughputDl:simu5g_rateavg 2024.8242671557541
scalar SingleCell.ue[3].cellularNic.rlc.um rlcDelayUl:mean 0.011666666666666639
scalar SingleCell.ue[3].cellularNic.rlc.um rlcDelayDl:mean 0.0044048608665904669
scalar SingleCell.ue[3].cellularNic.rlc.um sentPacketToLowerLayer:count 268
scalar SingleCell.ue[3].cellularNic.rlc.um sentPacketToLowerLayer:sum(packetBytes) 12506
scalar SingleCell.ue[3].cellularNic.rlc.um sentPacketToUpperLayer:count 210
scalar SingleCell.ue[3].cellularNic.rlc.um sentPacketToUpperLayer:sum(packetBytes) 12390
scalar SingleCell.ue[3].cellularNic.rlc.um receivedPacketFromLowerLayer:count 210
scalar SingleCell.ue[3].cellularNic.rlc.um receivedPacketFromLowerLayer:sum(packetBytes) 12810
scalar SingleCell.ue[3].cellularNic.rlc.um receivedPacketFromUpperLayer:count 210
scalar SingleCell.ue[3].cellularNic.rlc.um receivedPacketFromUpperLayer:sum(packetBytes) 11970
scalar SingleCell.ue[3].cellularNic.rlc.am rlcPacketLossTotal:mean -nan
scalar SingleCell.ue[3].cellularNic.rlc.am rlcCellThroughputUl:simu5g_rateavg -nan
scalar SingleCell.ue[3].cellularNic.rlc.am rlcCellThroughputDl:simu5g_rateavg -nan
scalar SingleCell.ue[3].cellularNic.rlc.am rlcPduThroughputUl:simu5g_rateavg -nan
scalar SingleCell.ue[3].cellularNic.rlc.am rlcPduThroughputDl:simu5g_rateavg -nan
scalar SingleCell.ue[3].cellularNic.rlc.am rlcPduDelayUl:mean -nan
scalar SingleCell.ue[3].cellularNic.rlc.am rlcPduDelayDl:mean -nan
scalar SingleCell.ue[3].cellularNic.rlc.am rlcThroughputUl:simu5g_rateavg -nan
scalar SingleCell.ue[3].cellularNic.rlc.am rlcThroughputDl:simu5g_rateavg -nan
scalar SingleCell.ue[3].cellularNic.rlc.am rlcDelayUl:mean -nan
scalar SingleCell.ue[3].cellularNic.rlc.am rlcDelayDl:mean -nan
scalar SingleCell.ue[3].cellularNic.rlc.am rlcPduPacketLossUl:mean -nan
scalar SingleCell.ue[3].cellularNic.rlc.am rlcPduPacketLossDl:mean -nan
scalar SingleCell.ue[3].cellularNic.rlc.am rlcPacketLossUl:mean -nan
scalar SingleCell.ue[3].cellularNic.rlc.am rlcPacketLossDl:mean -nan
scalar SingleCell.ue[3].cellularNic.rlc.am rlcCellPacketLossUl:mean -nan
scalar SingleCell.ue[3].cellularNic.rlc.am rlcCellPacketLossDl:mean -nan
scalar SingleCell.ue[3].cellularNic.mac harqTxAttemptsUl:mean 1.0074626865671641
scalar SingleCell.ue[3].cellularNic.mac harqTxAttemptsDl:mean 1.0095238095238095
scalar SingleCell.ue[3].cellularNic.mac harqErrorRate_4th_Ul:mean -nan
scalar SingleCell.ue[3].cellularNic.mac harqErrorRate_4th_Dl:mean -nan
scalar SingleCell.ue[3].cellularNic.mac harqErrorRate_3rd_Ul:mean -nan
scalar SingleCell.ue[3].cellularNic.mac harqErrorRate_3rd_Dl:mean -nan
scalar SingleCell.ue[3].cellularNic.mac harqErrorRate_2nd_Ul:mean 0
scalar SingleCell.ue[3].cellularNic.mac harqErrorRate_2nd_Dl:mean 0
scalar SingleCell.ue[3].cellularNic.mac harqErrorRate_1st_Ul:mean 0.007462686567164179
scalar SingleCell.ue[3].cellularNic.mac harqErrorRate_1st_Dl:mean 0.0095238095238095247
scalar SingleCell.ue[3].cellularNic.mac harqErrorRateUl:mean 0.0074074074074074077
scalar SingleCell.ue[3].cellularNic.mac harqErrorRateDl:mean 0.009433962264150943
scalar SingleCell.ue[3].cellularNic.mac macCellPacketLossUl:mean -nan
scalar SingleCell.ue[3].cellularNic.mac macCellPacketLossDl:mean -nan
scalar SingleCell.ue[3].cellularNic.mac macPacketLossUl:mean 0
scalar SingleCell.ue[3].cellularNic.mac macPacketLossDl:mean 0
scalar SingleCell.ue[3].cellularNic.mac macThroughputUl:simu5g_rateavg 2090.6134393027601
scalar SingleCell.ue[3].cellularNic.mac macThroughputDl:simu5g_rateavg 2162.1004886578385
scalar SingleCell.ue[3].cellularNic.mac macDelayUl:mean 0.0042985074626865705
scalar SingleCell.ue[3].cellularNic.mac macDelayDl:mean 0.0040571428571428599
scalar SingleCell.ue[3].cellularNic.mac macCellThroughputUl:simu5g_rateavg -nan
scalar SingleCell.ue[3].cellularNic.mac macCellThroughputDl:simu5g_rateavg -nan
scalar SingleCell.ue[3].cellularNic.mac sentPacketToLowerLayer:count 696
scalar SingleCell.ue[3].cellularNic.mac sentPacketToLowerLayer:sum(packetBytes) 13590
scalar SingleCell.ue[3].cellularNic.mac sentPacketToUpperLayer:count 478
scalar SingleCell.ue[3].cellularNic.mac sentPacketToUpperLayer:sum(packetBytes) 13078
scalar SingleCell.ue[3].cellularNic.mac receivedPacketFromLowerLayer:count 966
scalar SingleCell.ue[3].cellularNic.mac receivedPacketFromLowerLayer:sum(packetBytes) 14110
scalar SingleCell.ue[3].cellularNic.mac receivedPacketFromUpperLayer:count 478
scalar SingleCell.ue[3].cellularNic.mac receivedPacketFromUpperLayer:sum(packetBytes) 24476
scalar SingleCell.ue[3].cellularNic.mac macBufferOverFlowD2D:mean -nan
scalar SingleCell.ue[3].cellularNic.mac macBufferOverFlowUl:mean -nan
scalar SingleCell.ue[3].cellularNic.mac macBufferOverFlowDl:mean -nan
scalar SingleCell.ue[3].cellularNic.phy distance:mean 266.38972781796315
scalar SingleCell.ue[3].cellularNic.phy averageCqiUl:mean 11.62962962962963
scalar SingleCell.ue[3].cellularNic.phy averageCqiUl:count 270
scalar SingleCell.ue[3].cellularNic.phy averageCqiDl:mean 14.990566037735849
scalar SingleCell.ue[3].cellularNic.phy averageCqiDl:count 212
scalar SingleCell.ue[3].cellularNic.channelModel[0] measuredSinrUl:mean 20.872180651954494
scalar SingleCell.ue[3].cellularNic.channelModel[0] measuredSinrDl:mean 41.149329357461525
scalar SingleCell.ue[3].cellularNic.channelModel[0] rcvdSinrD2D:mean -nan
scalar SingleCell.ue[3].cellularNic.channelModel[0] rcvdSinrUl:mean 25.239761702037292
scalar SingleCell.ue[3].cellularNic.channelModel[0] rcvdSinrDl:mean 41.639719137358142
scalar SingleCell.ue[3].cellularNic packetDropInterfaceDown:count 0
scalar SingleCell.ue[3].cellularNic packetDropInterfaceDown:sum(packetBytes) 0
scalar SingleCell.ue[3].cellularNic packetDropNoCarrier:count 0
scalar SingleCell.ue[3].cellularNic packetDropNoCarrier:sum(packetBytes) 0
scalar SingleCell.ue[3].encap pauseSent:count 0
scalar SingleCell.ue[3].encap pauseSent:sum 0
scalar SingleCell.ue[3].encap decapPk:count 0
scalar SingleCell.ue[3].encap decapPk:sum(packetBytes) 0
scalar SingleCell.ue[3].encap encapPk:count 0
scalar SingleCell.ue[3].encap encapPk:sum(packetBytes) 0
scalar SingleCell.ue[3].ipv4.ip packetDropAddressResolutionFailed:count 0
scalar SingleCell.ue[3].ipv4.ip packetDropAddressResolutionFailed:sum(packetBytes) 0
scalar SingleCell.ue[3].ipv4.ip packetDropHopLimitReached:count 0
scalar SingleCell.ue[3].ipv4.ip packetDropHopLimitReached:sum(packetBytes) 0
scalar SingleCell.ue[3].ipv4.ip packetDropForwardingDisabled:count 0
scalar SingleCell.ue[3].ipv4.ip packetDropForwardingDisabled:sum(packetBytes) 0
scalar SingleCell.ue[3].ipv4.ip packetDropNoInterfaceFound:count 0
scalar SingleCell.ue[3].ipv4.ip packetDropNoInterfaceFound:sum(packetBytes) 0
scalar SingleCell.ue[3].ipv4.ip packetDropNoRouteFound:count 0
scalar SingleCell.ue[3].ipv4.ip packetDropNoRouteFound:sum(packetBytes) 0
scalar SingleCell.ue[3].ipv4.ip packetDropUndefined:count 0
scalar SingleCell.ue[3].ipv4.ip packetDropUndefined:sum(packetBytes) 0
scalar SingleCell.ue[3].ipv4.arp arpResolutionFailed:count 0
scalar SingleCell.ue[3].ipv4.arp arpResolutionCompleted:count 0
scalar SingleCell.ue[3].ipv4.arp arpResolutionInitiated:count 0
scalar SingleCell.ue[3].ipv4.arp arpReplySent:count 0
scalar SingleCell.ue[3].ipv4.arp arpReplySent:sum(packetBytes) 0
scalar SingleCell.ue[3].ipv4.arp arpRequestSent:count 0
scalar SingleCell.ue[3].ipv4.arp arpRequestSent:sum(packetBytes) 0
scalar SingleCell.ue[3].udp packetReceived:count 210
scalar SingleCell.ue[3].udp packetReceived:sum(packetBytes) 7980
scalar SingleCell.ue[3].udp packetSent:count 0
scalar SingleCell.ue[3].udp packetSent:sum(packetBytes) 0
scalar SingleCell.ue[3].udp passedUpPk:count 0
scalar SingleCell.ue[3].udp droppedPkWrongPort:count 210
scalar SingleCell.ue[3].udp droppedPkBadChecksum:count 0
scalar SingleCell.ue[4].lo[0].lo rcvdPkFromHl:count 0
scalar SingleCell.ue[4].lo[0].lo rcvdPkFromHl:sum(packetBytes) 0
scalar SingleCell.ue[4].lo[0].lo passedUpPk:count 0
scalar SingleCell.ue[4].lo[0].lo passedUpPk:sum(packetBytes) 0
scalar SingleCell.ue[4].lo[0] packetDropInterfaceDown:count 0
scalar SingleCell.ue[4].lo[0] packetDropInterfaceDown:sum(packetBytes) 0
scalar SingleCell.ue[4].lo[0] packetDropNoCarrier:count 0
scalar SingleCell.ue[4].lo[0] packetDropNoCarrier:sum(packetBytes) 0
scalar SingleCell.ue[4].cellularNic.pdcp sentPacketToLowerLayer:count 290
scalar SingleCell.ue[4].cellularNic.pdcp sentPacketToLowerLayer:sum(packetBytes) 16530
scalar SingleCell.ue[4].cellularNic.pdcp sentPacketToUpperLayer:count 290
scalar SingleCell.ue[4].cellularNic.pdcp sentPacketToUpperLayer:sum(packetBytes) 16820
scalar SingleCell.ue[4].cellularNic.pdcp receivedPacketFromLowerLayer:count 290
scalar SingleCell.ue[4].cellularNic.pdcp receivedPacketFromLowerLayer:sum(packetBytes) 17110
scalar SingleCell.ue[4].cellularNic.pdcp receivedPacketFromUpperLayer:count 290
scalar SingleCell.ue[4].cellularNic.pdcp receivedPacketFromUpperLayer:sum(packetBytes) 16240
scalar SingleCell.ue[4].cellularNic.rlc.tm rlcPacketLossUl:mean -nan
scalar SingleCell.ue[4].cellularNic.rlc.tm rlcPacketLossUl:sum 0
scalar SingleCell.ue[4].cellularNic.rlc.tm rlcPacketLossDl:mean -nan
scalar SingleCell.ue[4].cellularNic.rlc.tm rlcPacketLossDl:sum 0
scalar SingleCell.ue[4].cellularNic.rlc.tm sentPacketToLowerLayer:count 0
scalar SingleCell.ue[4].cellularNic.rlc.tm sentPacketToLowerLayer:sum(packetBytes) 0
scalar SingleCell.ue[4].cellularNic.rlc.tm sentPacketToUpperLayer:count 0
scalar SingleCell.ue[4].cellularNic.rlc.tm sentPacketToUpperLayer:sum(packetBytes) 0
scalar SingleCell.ue[4].cellularNic.rlc.tm receivedPacketFromLowerLayer:count 0
scalar SingleCell.ue[4].cellularNic.rlc.tm receivedPacketFromLowerLayer:sum(packetBytes) 0
scalar SingleCell.ue[4].cellularNic.rlc.tm receivedPacketFromUpperLayer:count 0
scalar SingleCell.ue[4].cellularNic.rlc.tm receivedPacketFromUpperLayer:sum(packetBytes) 0
scalar SingleCell.ue[4].cellularNic.rlc.um rlcCellThroughputUl:simu5g_rateavg -nan
scalar SingleCell.ue[4].cellularNic.rlc.um rlcCellThroughputDl:simu5g_rateavg -nan
[...]
scalar SingleCell.ue[49].cellularNic.mac sentPacketToUpperLayer:vector(packetBytes):endtime nan
scalar SingleCell.ue[49].cellularNic.mac sentPacketToLowerLayer:vector(packetBytes):count 0
scalar SingleCell.ue[49].cellularNic.mac sentPacketToLowerLayer:vector(packetBytes):sum 0
scalar SingleCell.ue[49].cellularNic.mac sentPacketToLowerLayer:vector(packetBytes):sumweights 0
scalar SingleCell.ue[49].cellularNic.mac sentPacketToLowerLayer:vector(packetBytes):mean -nan
scalar SingleCell.ue[49].cellularNic.mac sentPacketToLowerLayer:vector(packetBytes):stddev nan
scalar SingleCell.ue[49].cellularNic.mac sentPacketToLowerLayer:vector(packetBytes):min inf
scalar SingleCell.ue[49].cellularNic.mac sentPacketToLowerLayer:vector(packetBytes):max -inf
scalar SingleCell.ue[49].cellularNic.mac sentPacketToLowerLayer:vector(packetBytes):starttime nan
scalar SingleCell.ue[49].cellularNic.mac sentPacketToLowerLayer:vector(packetBytes):endtime nan
scalar SingleCell.ue[49].cellularNic.phy distance:vector:count 0
scalar SingleCell.ue[49].cellularNic.phy distance:vector:sum 0
scalar SingleCell.ue[49].cellularNic.phy distance:vector:sumweights 0
scalar SingleCell.ue[49].cellularNic.phy distance:vector:mean -nan
scalar SingleCell.ue[49].cellularNic.phy distance:vector:stddev nan
scalar SingleCell.ue[49].cellularNic.phy distance:vector:min inf
scalar SingleCell.ue[49].cellularNic.phy distance:vector:max -inf
scalar SingleCell.ue[49].cellularNic.phy distance:vector:starttime nan
scalar SingleCell.ue[49].cellularNic.phy distance:vector:endtime nan
scalar SingleCell.ue[49].cellularNic.phy servingCell:vector:count 0
scalar SingleCell.ue[49].cellularNic.phy servingCell:vector:sum 0
scalar SingleCell.ue[49].cellularNic.phy servingCell:vector:sumweights 0
scalar SingleCell.ue[49].cellularNic.phy servingCell:vector:mean -nan
scalar SingleCell.ue[49].cellularNic.phy servingCell:vector:stddev nan
scalar SingleCell.ue[49].cellularNic.phy servingCell:vector:min inf
scalar SingleCell.ue[49].cellularNic.phy servingCell:vector:max -inf
scalar SingleCell.ue[49].cellularNic.phy servingCell:vector:starttime nan
scalar SingleCell.ue[49].cellularNic.phy servingCell:vector:endtime nan
scalar SingleCell.ue[49].cellularNic.phy averageCqiDl:vector:count 0
scalar SingleCell.ue[49].cellularNic.phy averageCqiDl:vector:sum 0
scalar SingleCell.ue[49].cellularNic.phy averageCqiDl:vector:sumweights 0
scalar SingleCell.ue[49].cellularNic.phy averageCqiDl:vector:mean -nan
scalar SingleCell.ue[49].cellularNic.phy averageCqiDl:vector:stddev nan
scalar SingleCell.ue[49].cellularNic.phy averageCqiDl:vector:min inf
scalar SingleCell.ue[49].cellularNic.phy averageCqiDl:vector:max -inf
scalar SingleCell.ue[49].cellularNic.phy averageCqiDl:vector:starttime nan
scalar SingleCell.ue[49].cellularNic.phy averageCqiDl:vector:endtime nan
scalar SingleCell.ue[49].cellularNic.phy averageCqiUl:vector:count 0
scalar SingleCell.ue[49].cellularNic.phy averageCqiUl:vector:sum 0
scalar SingleCell.ue[49].cellularNic.phy averageCqiUl:vector:sumweights 0
scalar SingleCell.ue[49].cellularNic.phy averageCqiUl:vector:mean -nan
scalar SingleCell.ue[49].cellularNic.phy averageCqiUl:vector:stddev nan
scalar SingleCell.ue[49].cellularNic.phy averageCqiUl:vector:min inf
scalar SingleCell.ue[49].cellularNic.phy averageCqiUl:vector:max -inf
scalar SingleCell.ue[49].cellularNic.phy averageCqiUl:vector:starttime nan
scalar SingleCell.ue[49].cellularNic.phy averageCqiUl:vector:endtime nan
scalar SingleCell.ue[49].cellularNic.channelModel[0] rcvdSinrDl:vector:count 0
scalar SingleCell.ue[49].cellularNic.channelModel[0] rcvdSinrDl:vector:sum 0
scalar SingleCell.ue[49].cellularNic.channelModel[0] rcvdSinrDl:vector:sumweights 0
scalar SingleCell.ue[49].cellularNic.channelModel[0] rcvdSinrDl:vector:mean -nan
scalar SingleCell.ue[49].cellularNic.channelModel[0] rcvdSinrDl:vector:stddev nan
scalar SingleCell.ue[49].cellularNic.channelModel[0] rcvdSinrDl:vector:min inf
scalar SingleCell.ue[49].cellularNic.channelModel[0] rcvdSinrDl:vector:max -inf
scalar SingleCell.ue[49].cellularNic.channelModel[0] rcvdSinrDl:vector:starttime nan
scalar SingleCell.ue[49].cellularNic.channelModel[0] rcvdSinrDl:vector:endtime nan
scalar SingleCell.ue[49].cellularNic.channelModel[0] rcvdSinrUl:vector:count 0
scalar SingleCell.ue[49].cellularNic.channelModel[0] rcvdSinrUl:vector:sum 0
scalar SingleCell.ue[49].cellularNic.channelModel[0] rcvdSinrUl:vector:sumweights 0
scalar SingleCell.ue[49].cellularNic.channelModel[0] rcvdSinrUl:vector:mean -nan
scalar SingleCell.ue[49].cellularNic.channelModel[0] rcvdSinrUl:vector:stddev nan
scalar SingleCell.ue[49].cellularNic.channelModel[0] rcvdSinrUl:vector:min inf
scalar SingleCell.ue[49].cellularNic.channelModel[0] rcvdSinrUl:vector:max -inf
scalar SingleCell.ue[49].cellularNic.channelModel[0] rcvdSinrUl:vector:starttime nan
scalar SingleCell.ue[49].cellularNic.channelModel[0] rcvdSinrUl:vector:endtime nan
scalar SingleCell.ue[49].cellularNic.channelModel[0] rcvdSinrD2D:vector:count 0
scalar SingleCell.ue[49].cellularNic.channelModel[0] rcvdSinrD2D:vector:sum 0
scalar SingleCell.ue[49].cellularNic.channelModel[0] rcvdSinrD2D:vector:sumweights 0
scalar SingleCell.ue[49].cellularNic.channelModel[0] rcvdSinrD2D:vector:mean -nan
scalar SingleCell.ue[49].cellularNic.channelModel[0] rcvdSinrD2D:vector:stddev nan
scalar SingleCell.ue[49].cellularNic.channelModel[0] rcvdSinrD2D:vector:min inf
scalar SingleCell.ue[49].cellularNic.channelModel[0] rcvdSinrD2D:vector:max -inf
scalar SingleCell.ue[49].cellularNic.channelModel[0] rcvdSinrD2D:vector:starttime nan
scalar SingleCell.ue[49].cellularNic.channelModel[0] rcvdSinrD2D:vector:endtime nan
scalar SingleCell.ue[49].cellularNic.channelModel[0] measuredSinrDl:vector:count 0
scalar SingleCell.ue[49].cellularNic.channelModel[0] measuredSinrDl:vector:sum 0
scalar SingleCell.ue[49].cellularNic.channelModel[0] measuredSinrDl:vector:sumweights 0
scalar SingleCell.ue[49].cellularNic.channelModel[0] measuredSinrDl:vector:mean -nan
scalar SingleCell.ue[49].cellularNic.channelModel[0] measuredSinrDl:vector:stddev nan
scalar SingleCell.ue[49].cellularNic.channelModel[0] measuredSinrDl:vector:min inf
scalar SingleCell.ue[49].cellularNic.channelModel[0] measuredSinrDl:vector:max -inf
scalar SingleCell.ue[49].cellularNic.channelModel[0] measuredSinrDl:vector:starttime nan
scalar SingleCell.ue[49].cellularNic.channelModel[0] measuredSinrDl:vector:endtime nan
scalar SingleCell.ue[49].cellularNic.channelModel[0] measuredSinrUl:vector:count 0
scalar SingleCell.ue[49].cellularNic.channelModel[0] measuredSinrUl:vector:sum 0
scalar SingleCell.ue[49].cellularNic.channelModel[0] measuredSinrUl:vector:sumweights 0
scalar SingleCell.ue[49].cellularNic.channelModel[0] measuredSinrUl:vector:mean -nan
scalar SingleCell.ue[49].cellularNic.channelModel[0] measuredSinrUl:vector:stddev nan
scalar SingleCell.ue[49].cellularNic.channelModel[0] measuredSinrUl:vector:min inf
scalar SingleCell.ue[49].cellularNic.channelModel[0] measuredSinrUl:vector:max -inf
scalar SingleCell.ue[49].cellularNic.channelModel[0] measuredSinrUl:vector:starttime nan
scalar SingleCell.ue[49].cellularNic.channelModel[0] measuredSinrUl:vector:endtime nan
scalar SingleCell.ue[49].cellularNic packetDropInterfaceDown:vector(packetBytes):count 0
scalar SingleCell.ue[49].cellularNic packetDropInterfaceDown:vector(packetBytes):sum 0
scalar SingleCell.ue[49].cellularNic packetDropInterfaceDown:vector(packetBytes):sumweights 0
scalar SingleCell.ue[49].cellularNic packetDropInterfaceDown:vector(packetBytes):mean -nan
scalar SingleCell.ue[49].cellularNic packetDropInterfaceDown:vector(packetBytes):stddev nan
scalar SingleCell.ue[49].cellularNic packetDropInterfaceDown:vector(packetBytes):min inf
scalar SingleCell.ue[49].cellularNic packetDropInterfaceDown:vector(packetBytes):max -inf
scalar SingleCell.ue[49].cellularNic packetDropInterfaceDown:vector(packetBytes):starttime nan
scalar SingleCell.ue[49].cellularNic packetDropInterfaceDown:vector(packetBytes):endtime nan
scalar SingleCell.ue[49].cellularNic packetDropNoCarrier:vector(packetBytes):count 0
scalar SingleCell.ue[49].cellularNic packetDropNoCarrier:vector(packetBytes):sum 0
scalar SingleCell.ue[49].cellularNic packetDropNoCarrier:vector(packetBytes):sumweights 0
scalar SingleCell.ue[49].cellularNic packetDropNoCarrier:vector(packetBytes):mean -nan
scalar SingleCell.ue[49].cellularNic packetDropNoCarrier:vector(packetBytes):stddev nan
scalar SingleCell.ue[49].cellularNic packetDropNoCarrier:vector(packetBytes):min inf
scalar SingleCell.ue[49].cellularNic packetDropNoCarrier:vector(packetBytes):max -inf
scalar SingleCell.ue[49].cellularNic packetDropNoCarrier:vector(packetBytes):starttime nan
scalar SingleCell.ue[49].cellularNic packetDropNoCarrier:vector(packetBytes):endtime nan
scalar SingleCell.ue[49].encap encapPk:vector(packetBytes):count 0
scalar SingleCell.ue[49].encap encapPk:vector(packetBytes):sum 0
scalar SingleCell.ue[49].encap encapPk:vector(packetBytes):sumweights 0
scalar SingleCell.ue[49].encap encapPk:vector(packetBytes):mean -nan
scalar SingleCell.ue[49].encap encapPk:vector(packetBytes):stddev nan
scalar SingleCell.ue[49].encap encapPk:vector(packetBytes):min inf
scalar SingleCell.ue[49].encap encapPk:vector(packetBytes):max -inf
scalar SingleCell.ue[49].encap encapPk:vector(packetBytes):starttime nan
scalar SingleCell.ue[49].encap encapPk:vector(packetBytes):endtime nan
scalar SingleCell.ue[49].encap decapPk:vector(packetBytes):count 0
scalar SingleCell.ue[49].encap decapPk:vector(packetBytes):sum 0
scalar SingleCell.ue[49].encap decapPk:vector(packetBytes):sumweights 0
scalar SingleCell.ue[49].encap decapPk:vector(packetBytes):mean -nan
scalar SingleCell.ue[49].encap decapPk:vector(packetBytes):stddev nan
scalar SingleCell.ue[49].encap decapPk:vector(packetBytes):min inf
scalar SingleCell.ue[49].encap decapPk:vector(packetBytes):max -inf
scalar SingleCell.ue[49].encap decapPk:vector(packetBytes):starttime nan
scalar SingleCell.ue[49].encap decapPk:vector(packetBytes):endtime nan
scalar SingleCell.ue[49].encap pauseSent:vector:count 0
scalar SingleCell.ue[49].encap pauseSent:vector:sum 0
scalar SingleCell.ue[49].encap pauseSent:vector:sumweights 0
scalar SingleCell.ue[49].encap pauseSent:vector:mean -nan
scalar SingleCell.ue[49].encap pauseSent:vector:stddev nan
scalar SingleCell.ue[49].encap pauseSent:vector:min inf
scalar SingleCell.ue[49].encap pauseSent:vector:max -inf
scalar SingleCell.ue[49].encap pauseSent:vector:starttime nan
scalar SingleCell.ue[49].encap pauseSent:vector:endtime nan
scalar SingleCell.ue[49].ipv4.ip packetDropAddressResolutionFailed:vector(packetBytes):count 0
scalar SingleCell.ue[49].ipv4.ip packetDropAddressResolutionFailed:vector(packetBytes):sum 0
scalar SingleCell.ue[49].ipv4.ip packetDropAddressResolutionFailed:vector(packetBytes):sumweights 0
scalar SingleCell.ue[49].ipv4.ip packetDropAddressResolutionFailed:vector(packetBytes):mean -nan
scalar SingleCell.ue[49].ipv4.ip packetDropAddressResolutionFailed:vector(packetBytes):stddev nan
scalar SingleCell.ue[49].ipv4.ip packetDropAddressResolutionFailed:vector(packetBytes):min inf
scalar SingleCell.ue[49].ipv4.ip packetDropAddressResolutionFailed:vector(packetBytes):max -inf
scalar SingleCell.ue[49].ipv4.ip packetDropAddressResolutionFailed:vector(packetBytes):starttime nan
scalar SingleCell.ue[49].ipv4.ip packetDropAddressResolutionFailed:vector(packetBytes):endtime nan
scalar SingleCell.ue[49].ipv4.ip packetDropHopLimitReached:vector(packetBytes):count 0
scalar SingleCell.ue[49].ipv4.ip packetDropHopLimitReached:vector(packetBytes):sum 0
scalar SingleCell.ue[49].ipv4.ip packetDropHopLimitReached:vector(packetBytes):sumweights 0
scalar SingleCell.ue[49].ipv4.ip packetDropHopLimitReached:vector(packetBytes):mean -nan
scalar SingleCell.ue[49].ipv4.ip packetDropHopLimitReached:vector(packetBytes):stddev nan
scalar SingleCell.ue[49].ipv4.ip packetDropHopLimitReached:vector(packetBytes):min inf
scalar SingleCell.ue[49].ipv4.ip packetDropHopLimitReached:vector(packetBytes):max -inf
scalar SingleCell.ue[49].ipv4.ip packetDropHopLimitReached:vector(packetBytes):starttime nan
scalar SingleCell.ue[49].ipv4.ip packetDropHopLimitReached:vector(packetBytes):endtime nan
scalar SingleCell.ue[49].ipv4.ip packetDropForwardingDisabled:vector(packetBytes):count 0
scalar SingleCell.ue[49].ipv4.ip packetDropForwardingDisabled:vector(packetBytes):sum 0
scalar SingleCell.ue[49].ipv4.ip packetDropForwardingDisabled:vector(packetBytes):sumweights 0
scalar SingleCell.ue[49].ipv4.ip packetDropForwardingDisabled:vector(packetBytes):mean -nan
scalar SingleCell.ue[49].ipv4.ip packetDropForwardingDisabled:vector(packetBytes):stddev nan
scalar SingleCell.ue[49].ipv4.ip packetDropForwardingDisabled:vector(packetBytes):min inf
scalar SingleCell.ue[49].ipv4.ip packetDropForwardingDisabled:vector(packetBytes):max -inf
scalar SingleCell.ue[49].ipv4.ip packetDropForwardingDisabled:vector(packetBytes):starttime nan
scalar SingleCell.ue[49].ipv4.ip packetDropForwardingDisabled:vector(packetBytes):endtime nan
scalar SingleCell.ue[49].ipv4.ip packetDropNoInterfaceFound:vector(packetBytes):count 0
scalar SingleCell.ue[49].ipv4.ip packetDropNoInterfaceFound:vector(packetBytes):sum 0
scalar SingleCell.ue[49].ipv4.ip packetDropNoInterfaceFound:vector(packetBytes):sumweights 0
scalar SingleCell.ue[49].ipv4.ip packetDropNoInterfaceFound:vector(packetBytes):mean -nan
scalar SingleCell.ue[49].ipv4.ip packetDropNoInterfaceFound:vector(packetBytes):stddev nan
scalar SingleCell.ue[49].ipv4.ip packetDropNoInterfaceFound:vector(packetBytes):min inf
scalar SingleCell.ue[49].ipv4.ip packetDropNoInterfaceFound:vector(packetBytes):max -inf
scalar SingleCell.ue[49].ipv4.ip packetDropNoInterfaceFound:vector(packetBytes):starttime nan
scalar SingleCell.ue[49].ipv4.ip packetDropNoInterfaceFound:vector(packetBytes):endtime nan
scalar SingleCell.ue[49].ipv4.ip packetDropNoRouteFound:vector(packetBytes):count 0
scalar SingleCell.ue[49].ipv4.ip packetDropNoRouteFound:vector(packetBytes):sum 0
scalar SingleCell.ue[49].ipv4.ip packetDropNoRouteFound:vector(packetBytes):sumweights 0
scalar SingleCell.ue[49].ipv4.ip packetDropNoRouteFound:vector(packetBytes):mean -nan
scalar SingleCell.ue[49].ipv4.ip packetDropNoRouteFound:vector(packetBytes):stddev nan
scalar SingleCell.ue[49].ipv4.ip packetDropNoRouteFound:vector(packetBytes):min inf
scalar SingleCell.ue[49].ipv4.ip packetDropNoRouteFound:vector(packetBytes):max -inf
scalar SingleCell.ue[49].ipv4.ip packetDropNoRouteFound:vector(packetBytes):starttime nan
scalar SingleCell.ue[49].ipv4.ip packetDropNoRouteFound:vector(packetBytes):endtime nan
scalar SingleCell.ue[49].ipv4.ip packetDropUndefined:vector(packetBytes):count 0
scalar SingleCell.ue[49].ipv4.ip packetDropUndefined:vector(packetBytes):sum 0
scalar SingleCell.ue[49].ipv4.ip packetDropUndefined:vector(packetBytes):sumweights 0
scalar SingleCell.ue[49].ipv4.ip packetDropUndefined:vector(packetBytes):mean -nan
scalar SingleCell.ue[49].ipv4.ip packetDropUndefined:vector(packetBytes):stddev nan
scalar SingleCell.ue[49].ipv4.ip packetDropUndefined:vector(packetBytes):min inf
scalar SingleCell.ue[49].ipv4.ip packetDropUndefined:vector(packetBytes):max -inf
scalar SingleCell.ue[49].ipv4.ip packetDropUndefined:vector(packetBytes):starttime nan
scalar SingleCell.ue[49].ipv4.ip packetDropUndefined:vector(packetBytes):endtime nan
scalar SingleCell.ue[49].ipv4.arp arpRequestSent:vector(packetBytes):count 0
scalar SingleCell.ue[49].ipv4.arp arpRequestSent:vector(packetBytes):sum 0
scalar SingleCell.ue[49].ipv4.arp arpRequestSent:vector(packetBytes):sumweights 0
scalar SingleCell.ue[49].ipv4.arp arpRequestSent:vector(packetBytes):mean -nan
scalar SingleCell.ue[49].ipv4.arp arpRequestSent:vector(packetBytes):stddev nan
scalar SingleCell.ue[49].ipv4.arp arpRequestSent:vector(packetBytes):min inf
scalar SingleCell.ue[49].ipv4.arp arpRequestSent:vector(packetBytes):max -inf
scalar SingleCell.ue[49].ipv4.arp arpRequestSent:vector(packetBytes):starttime nan
scalar SingleCell.ue[49].ipv4.arp arpRequestSent:vector(packetBytes):endtime nan
scalar SingleCell.ue[49].ipv4.arp arpReplySent:vector(packetBytes):count 0
scalar SingleCell.ue[49].ipv4.arp arpReplySent:vector(packetBytes):sum 0
scalar SingleCell.ue[49].ipv4.arp arpReplySent:vector(packetBytes):sumweights 0
scalar SingleCell.ue[49].ipv4.arp arpReplySent:vector(packetBytes):mean -nan
scalar SingleCell.ue[49].ipv4.arp arpReplySent:vector(packetBytes):stddev nan
scalar SingleCell.ue[49].ipv4.arp arpReplySent:vector(packetBytes):min inf
scalar SingleCell.ue[49].ipv4.arp arpReplySent:vector(packetBytes):max -inf
scalar SingleCell.ue[49].ipv4.arp arpReplySent:vector(packetBytes):starttime nan
scalar SingleCell.ue[49].ipv4.arp arpReplySent:vector(packetBytes):endtime nan
scalar SingleCell.ue[49].udp packetSent:vector(packetBytes):count 0
scalar SingleCell.ue[49].udp packetSent:vector(packetBytes):sum 0
scalar SingleCell.ue[49].udp packetSent:vector(packetBytes):sumweights 0
scalar SingleCell.ue[49].udp packetSent:vector(packetBytes):mean -nan
scalar SingleCell.ue[49].udp packetSent:vector(packetBytes):stddev nan
scalar SingleCell.ue[49].udp packetSent:vector(packetBytes):min inf
scalar SingleCell.ue[49].udp packetSent:vector(packetBytes):max -inf
scalar SingleCell.ue[49].udp packetSent:vector(packetBytes):starttime nan
scalar SingleCell.ue[49].udp packetSent:vector(packetBytes):endtime nan
scalar SingleCell.ue[49].udp packetReceived:vector(packetBytes):count 0
scalar SingleCell.ue[49].udp packetReceived:vector(packetBytes):sum 0
scalar SingleCell.ue[49].udp packetReceived:vector(packetBytes):sumweights 0
scalar SingleCell.ue[49].udp packetReceived:vector(packetBytes):mean -nan
scalar SingleCell.ue[49].udp packetReceived:vector(packetBytes):stddev nan
scalar SingleCell.ue[49].udp packetReceived:vector(packetBytes):min inf
scalar SingleCell.ue[49].udp packetReceived:vector(packetBytes):max -inf
scalar SingleCell.ue[49].udp packetReceived:vector(packetBytes):starttime nan
scalar SingleCell.ue[49].udp packetReceived:vector(packetBytes):endtime nan
scalar SingleCell.ue[49].udp passedUpPk:vector(count):count 0
scalar SingleCell.ue[49].udp passedUpPk:vector(count):sum 0
scalar SingleCell.ue[49].udp passedUpPk:vector(count):sumweights 0
scalar SingleCell.ue[49].udp passedUpPk:vector(count):mean -nan
scalar SingleCell.ue[49].udp passedUpPk:vector(count):stddev nan
scalar SingleCell.ue[49].udp passedUpPk:vector(count):min inf
scalar SingleCell.ue[49].udp passedUpPk:vector(count):max -inf
scalar SingleCell.ue[49].udp passedUpPk:vector(count):starttime nan
scalar SingleCell.ue[49].udp passedUpPk:vector(count):endtime nan
scalar SingleCell.ue[49].udp droppedPkWrongPort:vector(count):count 0
scalar SingleCell.ue[49].udp droppedPkWrongPort:vector(count):sum 0
scalar SingleCell.ue[49].udp droppedPkWrongPort:vector(count):sumweights 0
scalar SingleCell.ue[49].udp droppedPkWrongPort:vector(count):mean -nan
scalar SingleCell.ue[49].udp droppedPkWrongPort:vector(count):stddev nan
scalar SingleCell.ue[49].udp droppedPkWrongPort:vector(count):min inf
scalar SingleCell.ue[49].udp droppedPkWrongPort:vector(count):max -inf
scalar SingleCell.ue[49].udp droppedPkWrongPort:vector(count):starttime nan
scalar SingleCell.ue[49].udp droppedPkWrongPort:vector(count):endtime nan
scalar SingleCell.ue[49].udp droppedPkBadChecksum:vector(count):count 0
scalar SingleCell.ue[49].udp droppedPkBadChecksum:vector(count):sum 0
scalar SingleCell.ue[49].udp droppedPkBadChecksum:vector(count):sumweights 0
scalar SingleCell.ue[49].udp droppedPkBadChecksum:vector(count):mean -nan
scalar SingleCell.ue[49].udp droppedPkBadChecksum:vector(count):stddev nan
scalar SingleCell.ue[49].udp droppedPkBadChecksum:vector(count):min inf
scalar SingleCell.ue[49].udp droppedPkBadChecksum:vector(count):max -inf
scalar SingleCell.ue[49].udp droppedPkBadChecksum:vector(count):starttime nan
scalar SingleCell.ue[49].udp droppedPkBadChecksum:vector(count):endtime nan

