version 3
run VoIP-UL-0-20260710-13:58:27-780800
attr configname VoIP-UL
attr datetime 20260710-13:58:27
attr datetimef 20260710-135827
attr experiment VoIP-UL
attr inifile omnetpp.ini
attr iterationvars ""
attr iterationvarsd ""
attr iterationvarsf ""
attr measurement ""
attr network simu5g.simulations.nr.networks.SingleCell_Standalone
attr processid 780800
attr repetition 0
attr replication #0
attr resultdir results
attr runnumber 0
attr seedset 0
config **.param-recording false
config image-path /home/andras/projects/Simu5G-fork/simu5g-fork/images
config output-scalar-file results/omnetpp.ini-VoIP-UL-#0.sca
config output-scalar-precision 17
config output-vector-file results/omnetpp.ini-VoIP-UL-#0.vec
config output-vector-precision 17
config record-eventlog false
config sim-time-limit 20s
config extends Standalone
config *.ue[*].numApps 1
config *.server.numApps 1
config *.server.app[*].typename VoipReceiver
config *.server.app[*].localPort 3000+ancestorIndex(0)
config *.ue[*].app[*].PacketSize 40
config *.ue[*].app[*].destAddress "\"server\""
config *.ue[*].app[*].localPort 3088+ancestorIndex(0)
config *.ue[*].app[*].typename VoipSender
config *.ue[*].app[*].startTime uniform(0s,0.02s)
config network simu5g.simulations.nr.networks.SingleCell_Standalone
config sim-time-limit 20s
config *.gnb.mobility.initialX 450m
config *.gnb.mobility.initialY 300m
config *.numUe 1
config *.ue[0].servingNodeId 0
config *.ue[0].nrServingNodeId 1
config *.ue[0].mobility.initialX 450m
config *.ue[0].mobility.initialY 350m
config sim-time-limit 20s
config **.routingRecorder.enabled false
config output-scalar-file results/VoIP-UL/0.sca
config output-vector-file results/VoIP-UL/0.vec
config seed-set 0
config **.vector-recording true
config **.mobility.constraintAreaMaxX 1000m
config **.mobility.constraintAreaMaxY 1000m
config **.mobility.constraintAreaMinX 0m
config **.mobility.constraintAreaMinY 0m
config **.mobility.constraintAreaMinZ 0m
config **.mobility.constraintAreaMaxZ 0m
config **.mobility.initFromDisplayString false
config **.numBands 50
config **.ueTxPower 26dBm
config **.eNodeBTxPower 40dBm
config **.targetBler 0.01
config **.blerShift 5
config *.configurator.config "xmldoc(\"./demo.xml\")"

scalar SingleCell_Standalone.server.lo[0].lo rcvdPkFromHl:count 0
scalar SingleCell_Standalone.server.lo[0].lo rcvdPkFromHl:sum(packetBytes) 0
scalar SingleCell_Standalone.server.lo[0].lo passedUpPk:count 0
scalar SingleCell_Standalone.server.lo[0].lo passedUpPk:sum(packetBytes) 0
scalar SingleCell_Standalone.server.lo[0] packetDropInterfaceDown:count 0
scalar SingleCell_Standalone.server.lo[0] packetDropInterfaceDown:sum(packetBytes) 0
scalar SingleCell_Standalone.server.lo[0] packetDropNoCarrier:count 0
scalar SingleCell_Standalone.server.lo[0] packetDropNoCarrier:sum(packetBytes) 0
scalar SingleCell_Standalone.server.ppp[0].queue queueLength:last 0
scalar SingleCell_Standalone.server.ppp[0].queue queueLength:max 0
scalar SingleCell_Standalone.server.ppp[0].queue queueLength:timeavg 0
scalar SingleCell_Standalone.server.ppp[0].queue queueBitLength:last 0
scalar SingleCell_Standalone.server.ppp[0].queue queueBitLength:max 0
scalar SingleCell_Standalone.server.ppp[0].queue queueBitLength:timeavg 0
scalar SingleCell_Standalone.server.ppp[0].queue outgoingPackets:count 0
scalar SingleCell_Standalone.server.ppp[0].queue outgoingPacketLengths:sum 0
scalar SingleCell_Standalone.server.ppp[0].queue incomingPackets:count 0
scalar SingleCell_Standalone.server.ppp[0].queue incomingPacketLengths:sum 0
scalar SingleCell_Standalone.server.ppp[0].queue droppedPacketsQueueOverflow:count 0
scalar SingleCell_Standalone.server.ppp[0].queue droppedPacketLengthsQueueOverflow:sum 0
scalar SingleCell_Standalone.server.ppp[0].ppp transmissionState:timeavg 0
scalar SingleCell_Standalone.server.ppp[0].ppp rxPkOk:count 661
scalar SingleCell_Standalone.server.ppp[0].ppp rxPkOk:sum(packetBytes) 49575
scalar SingleCell_Standalone.server.ppp[0].ppp txPk:count 0
scalar SingleCell_Standalone.server.ppp[0].ppp txPk:sum(packetBytes) 0
scalar SingleCell_Standalone.server.ppp[0].ppp rcvdPkFromHl:count 0
scalar SingleCell_Standalone.server.ppp[0].ppp rcvdPkFromHl:sum(packetBytes) 0
scalar SingleCell_Standalone.server.ppp[0].ppp passedUpPk:count 661
scalar SingleCell_Standalone.server.ppp[0].ppp passedUpPk:sum(packetBytes) 44948
scalar SingleCell_Standalone.server.ppp[0].ppp packetDropIncorrectlyReceived:count 0
scalar SingleCell_Standalone.server.ppp[0].ppp packetDropIncorrectlyReceived:sum(packetBytes) 0
scalar SingleCell_Standalone.server.ppp[0].ppp packetDropInterfaceDown:count 0
scalar SingleCell_Standalone.server.ppp[0].ppp packetDropInterfaceDown:sum(packetBytes) 0
scalar SingleCell_Standalone.server.ppp[0] packetDropInterfaceDown:count 0
scalar SingleCell_Standalone.server.ppp[0] packetDropInterfaceDown:sum(packetBytes) 0
scalar SingleCell_Standalone.server.ppp[0] packetDropNoCarrier:count 0
scalar SingleCell_Standalone.server.ppp[0] packetDropNoCarrier:sum(packetBytes) 0
scalar SingleCell_Standalone.server.ipv4.ip packetDropAddressResolutionFailed:count 0
scalar SingleCell_Standalone.server.ipv4.ip packetDropAddressResolutionFailed:sum(packetBytes) 0
scalar SingleCell_Standalone.server.ipv4.ip packetDropHopLimitReached:count 0
scalar SingleCell_Standalone.server.ipv4.ip packetDropHopLimitReached:sum(packetBytes) 0
scalar SingleCell_Standalone.server.ipv4.ip packetDropForwardingDisabled:count 0
scalar SingleCell_Standalone.server.ipv4.ip packetDropForwardingDisabled:sum(packetBytes) 0
scalar SingleCell_Standalone.server.ipv4.ip packetDropNoInterfaceFound:count 0
scalar SingleCell_Standalone.server.ipv4.ip packetDropNoInterfaceFound:sum(packetBytes) 0
scalar SingleCell_Standalone.server.ipv4.ip packetDropNoRouteFound:count 0
scalar SingleCell_Standalone.server.ipv4.ip packetDropNoRouteFound:sum(packetBytes) 0
scalar SingleCell_Standalone.server.ipv4.ip packetDropUndefined:count 0
scalar SingleCell_Standalone.server.ipv4.ip packetDropUndefined:sum(packetBytes) 0
scalar SingleCell_Standalone.server.ipv4.arp arpResolutionFailed:count 0
scalar SingleCell_Standalone.server.ipv4.arp arpResolutionCompleted:count 0
scalar SingleCell_Standalone.server.ipv4.arp arpResolutionInitiated:count 0
scalar SingleCell_Standalone.server.ipv4.arp arpReplySent:count 0
scalar SingleCell_Standalone.server.ipv4.arp arpReplySent:sum(packetBytes) 0
scalar SingleCell_Standalone.server.ipv4.arp arpRequestSent:count 0
scalar SingleCell_Standalone.server.ipv4.arp arpRequestSent:sum(packetBytes) 0
scalar SingleCell_Standalone.server.udp packetReceived:count 661
scalar SingleCell_Standalone.server.udp packetReceived:sum(packetBytes) 31728
scalar SingleCell_Standalone.server.udp packetSent:count 0
scalar SingleCell_Standalone.server.udp packetSent:sum(packetBytes) 0
scalar SingleCell_Standalone.server.udp passedUpPk:count 661
scalar SingleCell_Standalone.server.udp droppedPkWrongPort:count 0
scalar SingleCell_Standalone.server.udp droppedPkBadChecksum:count 0
scalar SingleCell_Standalone.server.app[0] voipReceivedThroughput:simu5g_rateavg 1467.7613040174699
scalar SingleCell_Standalone.server.app[0] voipPlayoutLoss:mean 0.1339662447257384
scalar SingleCell_Standalone.server.app[0] voipJitter:mean 0.0089448818897637852
scalar SingleCell_Standalone.server.app[0] voipTaildropLoss:mean 0
scalar SingleCell_Standalone.server.app[0] voipMos:mean 3.8490840843472518
scalar SingleCell_Standalone.server.app[0] voipFrameDelay:mean 0.01511169389974131
scalar SingleCell_Standalone.server.app[0] voipFrameLoss:mean 0
scalar SingleCell_Standalone.server.app[0] voipPlayoutDelay:mean 0.013333333333333334
scalar SingleCell_Standalone.router.lo[0].lo rcvdPkFromHl:count 0
scalar SingleCell_Standalone.router.lo[0].lo rcvdPkFromHl:sum(packetBytes) 0
scalar SingleCell_Standalone.router.lo[0].lo passedUpPk:count 0
scalar SingleCell_Standalone.router.lo[0].lo passedUpPk:sum(packetBytes) 0
scalar SingleCell_Standalone.router.lo[0] packetDropInterfaceDown:count 0
scalar SingleCell_Standalone.router.lo[0] packetDropInterfaceDown:sum(packetBytes) 0
scalar SingleCell_Standalone.router.lo[0] packetDropNoCarrier:count 0
scalar SingleCell_Standalone.router.lo[0] packetDropNoCarrier:sum(packetBytes) 0
scalar SingleCell_Standalone.router.ppp[0].queue queueLength:last 0
scalar SingleCell_Standalone.router.ppp[0].queue queueLength:max 0
scalar SingleCell_Standalone.router.ppp[0].queue queueLength:timeavg 0
scalar SingleCell_Standalone.router.ppp[0].queue queueBitLength:last 0
scalar SingleCell_Standalone.router.ppp[0].queue queueBitLength:max 0
scalar SingleCell_Standalone.router.ppp[0].queue queueBitLength:timeavg 0
scalar SingleCell_Standalone.router.ppp[0].queue outgoingPackets:count 661
scalar SingleCell_Standalone.router.ppp[0].queue outgoingPacketLengths:sum 359584
scalar SingleCell_Standalone.router.ppp[0].queue incomingPackets:count 661
scalar SingleCell_Standalone.router.ppp[0].queue incomingPacketLengths:sum 359584
scalar SingleCell_Standalone.router.ppp[0].queue droppedPacketsQueueOverflow:count 0
scalar SingleCell_Standalone.router.ppp[0].queue droppedPacketLengthsQueueOverflow:sum 0
scalar SingleCell_Standalone.router.ppp[0].ppp transmissionState:timeavg 1.9830000000000113e-06
scalar SingleCell_Standalone.router.ppp[0].ppp rxPkOk:count 0
scalar SingleCell_Standalone.router.ppp[0].ppp rxPkOk:sum(packetBytes) 0
scalar SingleCell_Standalone.router.ppp[0].ppp txPk:count 661
scalar SingleCell_Standalone.router.ppp[0].ppp txPk:sum(packetBytes) 49575
scalar SingleCell_Standalone.router.ppp[0].ppp rcvdPkFromHl:count 661
scalar SingleCell_Standalone.router.ppp[0].ppp rcvdPkFromHl:sum(packetBytes) 44948
scalar SingleCell_Standalone.router.ppp[0].ppp passedUpPk:count 0
scalar SingleCell_Standalone.router.ppp[0].ppp passedUpPk:sum(packetBytes) 0
scalar SingleCell_Standalone.router.ppp[0].ppp packetDropIncorrectlyReceived:count 0
scalar SingleCell_Standalone.router.ppp[0].ppp packetDropIncorrectlyReceived:sum(packetBytes) 0
scalar SingleCell_Standalone.router.ppp[0].ppp packetDropInterfaceDown:count 0
scalar SingleCell_Standalone.router.ppp[0].ppp packetDropInterfaceDown:sum(packetBytes) 0
scalar SingleCell_Standalone.router.ppp[0] packetDropInterfaceDown:count 0
scalar SingleCell_Standalone.router.ppp[0] packetDropInterfaceDown:sum(packetBytes) 0
scalar SingleCell_Standalone.router.ppp[0] packetDropNoCarrier:count 0
scalar SingleCell_Standalone.router.ppp[0] packetDropNoCarrier:sum(packetBytes) 0
scalar SingleCell_Standalone.router.ppp[1].queue queueLength:last 0
scalar SingleCell_Standalone.router.ppp[1].queue queueLength:max 0
scalar SingleCell_Standalone.router.ppp[1].queue queueLength:timeavg 0
scalar SingleCell_Standalone.router.ppp[1].queue queueBitLength:last 0
scalar SingleCell_Standalone.router.ppp[1].queue queueBitLength:max 0
scalar SingleCell_Standalone.router.ppp[1].queue queueBitLength:timeavg 0
scalar SingleCell_Standalone.router.ppp[1].queue outgoingPackets:count 0
scalar SingleCell_Standalone.router.ppp[1].queue outgoingPacketLengths:sum 0
scalar SingleCell_Standalone.router.ppp[1].queue incomingPackets:count 0
scalar SingleCell_Standalone.router.ppp[1].queue incomingPacketLengths:sum 0
scalar SingleCell_Standalone.router.ppp[1].queue droppedPacketsQueueOverflow:count 0
scalar SingleCell_Standalone.router.ppp[1].queue droppedPacketLengthsQueueOverflow:sum 0
scalar SingleCell_Standalone.router.ppp[1].ppp transmissionState:timeavg 0
scalar SingleCell_Standalone.router.ppp[1].ppp rxPkOk:count 661
scalar SingleCell_Standalone.router.ppp[1].ppp rxPkOk:sum(packetBytes) 49575
scalar SingleCell_Standalone.router.ppp[1].ppp txPk:count 0
scalar SingleCell_Standalone.router.ppp[1].ppp txPk:sum(packetBytes) 0
scalar SingleCell_Standalone.router.ppp[1].ppp rcvdPkFromHl:count 0
scalar SingleCell_Standalone.router.ppp[1].ppp rcvdPkFromHl:sum(packetBytes) 0
scalar SingleCell_Standalone.router.ppp[1].ppp passedUpPk:count 661
scalar SingleCell_Standalone.router.ppp[1].ppp passedUpPk:sum(packetBytes) 44948
scalar SingleCell_Standalone.router.ppp[1].ppp packetDropIncorrectlyReceived:count 0
scalar SingleCell_Standalone.router.ppp[1].ppp packetDropIncorrectlyReceived:sum(packetBytes) 0
scalar SingleCell_Standalone.router.ppp[1].ppp packetDropInterfaceDown:count 0
scalar SingleCell_Standalone.router.ppp[1].ppp packetDropInterfaceDown:sum(packetBytes) 0
scalar SingleCell_Standalone.router.ppp[1] packetDropInterfaceDown:count 0
scalar SingleCell_Standalone.router.ppp[1] packetDropInterfaceDown:sum(packetBytes) 0
scalar SingleCell_Standalone.router.ppp[1] packetDropNoCarrier:count 0
scalar SingleCell_Standalone.router.ppp[1] packetDropNoCarrier:sum(packetBytes) 0
scalar SingleCell_Standalone.router.ipv4.ip packetDropAddressResolutionFailed:count 0
scalar SingleCell_Standalone.router.ipv4.ip packetDropAddressResolutionFailed:sum(packetBytes) 0
scalar SingleCell_Standalone.router.ipv4.ip packetDropHopLimitReached:count 0
scalar SingleCell_Standalone.router.ipv4.ip packetDropHopLimitReached:sum(packetBytes) 0
scalar SingleCell_Standalone.router.ipv4.ip packetDropForwardingDisabled:count 0
scalar SingleCell_Standalone.router.ipv4.ip packetDropForwardingDisabled:sum(packetBytes) 0
scalar SingleCell_Standalone.router.ipv4.ip packetDropNoInterfaceFound:count 0
scalar SingleCell_Standalone.router.ipv4.ip packetDropNoInterfaceFound:sum(packetBytes) 0
scalar SingleCell_Standalone.router.ipv4.ip packetDropNoRouteFound:count 0
scalar SingleCell_Standalone.router.ipv4.ip packetDropNoRouteFound:sum(packetBytes) 0
scalar SingleCell_Standalone.router.ipv4.ip packetDropUndefined:count 0
scalar SingleCell_Standalone.router.ipv4.ip packetDropUndefined:sum(packetBytes) 0
scalar SingleCell_Standalone.router.ipv4.arp arpResolutionFailed:count 0
scalar SingleCell_Standalone.router.ipv4.arp arpResolutionCompleted:count 0
scalar SingleCell_Standalone.router.ipv4.arp arpResolutionInitiated:count 0
scalar SingleCell_Standalone.router.ipv4.arp arpReplySent:count 0
scalar SingleCell_Standalone.router.ipv4.arp arpReplySent:sum(packetBytes) 0
scalar SingleCell_Standalone.router.ipv4.arp arpRequestSent:count 0
scalar SingleCell_Standalone.router.ipv4.arp arpRequestSent:sum(packetBytes) 0
scalar SingleCell_Standalone.upf.lo[0].lo rcvdPkFromHl:count 0
scalar SingleCell_Standalone.upf.lo[0].lo rcvdPkFromHl:sum(packetBytes) 0
scalar SingleCell_Standalone.upf.lo[0].lo passedUpPk:count 0
scalar SingleCell_Standalone.upf.lo[0].lo passedUpPk:sum(packetBytes) 0
scalar SingleCell_Standalone.upf.lo[0] packetDropInterfaceDown:count 0
scalar SingleCell_Standalone.upf.lo[0] packetDropInterfaceDown:sum(packetBytes) 0
scalar SingleCell_Standalone.upf.lo[0] packetDropNoCarrier:count 0
scalar SingleCell_Standalone.upf.lo[0] packetDropNoCarrier:sum(packetBytes) 0
scalar SingleCell_Standalone.upf.ppp[0].queue queueLength:last 0
scalar SingleCell_Standalone.upf.ppp[0].queue queueLength:max 0
scalar SingleCell_Standalone.upf.ppp[0].queue queueLength:timeavg 0
scalar SingleCell_Standalone.upf.ppp[0].queue queueBitLength:last 0
scalar SingleCell_Standalone.upf.ppp[0].queue queueBitLength:max 0
scalar SingleCell_Standalone.upf.ppp[0].queue queueBitLength:timeavg 0
scalar SingleCell_Standalone.upf.ppp[0].queue outgoingPackets:count 0
scalar SingleCell_Standalone.upf.ppp[0].queue outgoingPacketLengths:sum 0
scalar SingleCell_Standalone.upf.ppp[0].queue incomingPackets:count 0
scalar SingleCell_Standalone.upf.ppp[0].queue incomingPacketLengths:sum 0
scalar SingleCell_Standalone.upf.ppp[0].queue droppedPacketsQueueOverflow:count 0
scalar SingleCell_Standalone.upf.ppp[0].queue droppedPacketLengthsQueueOverflow:sum 0
scalar SingleCell_Standalone.upf.ppp[0].ppp transmissionState:timeavg 0
scalar SingleCell_Standalone.upf.ppp[0].ppp rxPkOk:count 661
scalar SingleCell_Standalone.upf.ppp[0].ppp rxPkOk:sum(packetBytes) 73371
scalar SingleCell_Standalone.upf.ppp[0].ppp txPk:count 0
scalar SingleCell_Standalone.upf.ppp[0].ppp txPk:sum(packetBytes) 0
scalar SingleCell_Standalone.upf.ppp[0].ppp rcvdPkFromHl:count 0
scalar SingleCell_Standalone.upf.ppp[0].ppp rcvdPkFromHl:sum(packetBytes) 0
scalar SingleCell_Standalone.upf.ppp[0].ppp passedUpPk:count 661
scalar SingleCell_Standalone.upf.ppp[0].ppp passedUpPk:sum(packetBytes) 68744
scalar SingleCell_Standalone.upf.ppp[0].ppp packetDropIncorrectlyReceived:count 0
scalar SingleCell_Standalone.upf.ppp[0].ppp packetDropIncorrectlyReceived:sum(packetBytes) 0
scalar SingleCell_Standalone.upf.ppp[0].ppp packetDropInterfaceDown:count 0
scalar SingleCell_Standalone.upf.ppp[0].ppp packetDropInterfaceDown:sum(packetBytes) 0
scalar SingleCell_Standalone.upf.ppp[0] packetDropInterfaceDown:count 0
scalar SingleCell_Standalone.upf.ppp[0] packetDropInterfaceDown:sum(packetBytes) 0
scalar SingleCell_Standalone.upf.ppp[0] packetDropNoCarrier:count 0
scalar SingleCell_Standalone.upf.ppp[0] packetDropNoCarrier:sum(packetBytes) 0
scalar SingleCell_Standalone.upf.ipv4.ip packetDropAddressResolutionFailed:count 0
scalar SingleCell_Standalone.upf.ipv4.ip packetDropAddressResolutionFailed:sum(packetBytes) 0
scalar SingleCell_Standalone.upf.ipv4.ip packetDropHopLimitReached:count 0
scalar SingleCell_Standalone.upf.ipv4.ip packetDropHopLimitReached:sum(packetBytes) 0
scalar SingleCell_Standalone.upf.ipv4.ip packetDropForwardingDisabled:count 0
scalar SingleCell_Standalone.upf.ipv4.ip packetDropForwardingDisabled:sum(packetBytes) 0
scalar SingleCell_Standalone.upf.ipv4.ip packetDropNoInterfaceFound:count 0
scalar SingleCell_Standalone.upf.ipv4.ip packetDropNoInterfaceFound:sum(packetBytes) 0
scalar SingleCell_Standalone.upf.ipv4.ip packetDropNoRouteFound:count 0
scalar SingleCell_Standalone.upf.ipv4.ip packetDropNoRouteFound:sum(packetBytes) 0
scalar SingleCell_Standalone.upf.ipv4.ip packetDropUndefined:count 0
scalar SingleCell_Standalone.upf.ipv4.ip packetDropUndefined:sum(packetBytes) 0
scalar SingleCell_Standalone.upf.ipv4.arp arpResolutionFailed:count 0
scalar SingleCell_Standalone.upf.ipv4.arp arpResolutionCompleted:count 0
scalar SingleCell_Standalone.upf.ipv4.arp arpResolutionInitiated:count 0
scalar SingleCell_Standalone.upf.ipv4.arp arpReplySent:count 0
scalar SingleCell_Standalone.upf.ipv4.arp arpReplySent:sum(packetBytes) 0
scalar SingleCell_Standalone.upf.ipv4.arp arpRequestSent:count 0
scalar SingleCell_Standalone.upf.ipv4.arp arpRequestSent:sum(packetBytes) 0
scalar SingleCell_Standalone.upf.pppIf.queue queueLength:last 0
scalar SingleCell_Standalone.upf.pppIf.queue queueLength:max 0
scalar SingleCell_Standalone.upf.pppIf.queue queueLength:timeavg 0
scalar SingleCell_Standalone.upf.pppIf.queue queueBitLength:last 0
scalar SingleCell_Standalone.upf.pppIf.queue queueBitLength:max 0
scalar SingleCell_Standalone.upf.pppIf.queue queueBitLength:timeavg 0
scalar SingleCell_Standalone.upf.pppIf.queue outgoingPackets:count 661
scalar SingleCell_Standalone.upf.pppIf.queue outgoingPacketLengths:sum 359584
scalar SingleCell_Standalone.upf.pppIf.queue incomingPackets:count 661
scalar SingleCell_Standalone.upf.pppIf.queue incomingPacketLengths:sum 359584
scalar SingleCell_Standalone.upf.pppIf.queue droppedPacketsQueueOverflow:count 0
scalar SingleCell_Standalone.upf.pppIf.queue droppedPacketLengthsQueueOverflow:sum 0
scalar SingleCell_Standalone.upf.pppIf.ppp transmissionState:timeavg 1.9830000000000113e-06
scalar SingleCell_Standalone.upf.pppIf.ppp rxPkOk:count 0
scalar SingleCell_Standalone.upf.pppIf.ppp rxPkOk:sum(packetBytes) 0
scalar SingleCell_Standalone.upf.pppIf.ppp txPk:count 661
scalar SingleCell_Standalone.upf.pppIf.ppp txPk:sum(packetBytes) 49575
scalar SingleCell_Standalone.upf.pppIf.ppp rcvdPkFromHl:count 661
scalar SingleCell_Standalone.upf.pppIf.ppp rcvdPkFromHl:sum(packetBytes) 44948
scalar SingleCell_Standalone.upf.pppIf.ppp passedUpPk:count 0
scalar SingleCell_Standalone.upf.pppIf.ppp passedUpPk:sum(packetBytes) 0
scalar SingleCell_Standalone.upf.pppIf.ppp packetDropIncorrectlyReceived:count 0
scalar SingleCell_Standalone.upf.pppIf.ppp packetDropIncorrectlyReceived:sum(packetBytes) 0
scalar SingleCell_Standalone.upf.pppIf.ppp packetDropInterfaceDown:count 0
scalar SingleCell_Standalone.upf.pppIf.ppp packetDropInterfaceDown:sum(packetBytes) 0
scalar SingleCell_Standalone.upf.pppIf packetDropInterfaceDown:count 0
scalar SingleCell_Standalone.upf.pppIf packetDropInterfaceDown:sum(packetBytes) 0
scalar SingleCell_Standalone.upf.pppIf packetDropNoCarrier:count 0
scalar SingleCell_Standalone.upf.pppIf packetDropNoCarrier:sum(packetBytes) 0
scalar SingleCell_Standalone.upf.udp packetReceived:count 661
scalar SingleCell_Standalone.upf.udp packetReceived:sum(packetBytes) 55524
scalar SingleCell_Standalone.upf.udp packetSent:count 0
scalar SingleCell_Standalone.upf.udp packetSent:sum(packetBytes) 0
scalar SingleCell_Standalone.upf.udp passedUpPk:count 661
scalar SingleCell_Standalone.upf.udp droppedPkWrongPort:count 0
scalar SingleCell_Standalone.upf.udp droppedPkBadChecksum:count 0
scalar SingleCell_Standalone.iUpf.lo[0].lo rcvdPkFromHl:count 0
scalar SingleCell_Standalone.iUpf.lo[0].lo rcvdPkFromHl:sum(packetBytes) 0
scalar SingleCell_Standalone.iUpf.lo[0].lo passedUpPk:count 0
scalar SingleCell_Standalone.iUpf.lo[0].lo passedUpPk:sum(packetBytes) 0
scalar SingleCell_Standalone.iUpf.lo[0] packetDropInterfaceDown:count 0
scalar SingleCell_Standalone.iUpf.lo[0] packetDropInterfaceDown:sum(packetBytes) 0
scalar SingleCell_Standalone.iUpf.lo[0] packetDropNoCarrier:count 0
scalar SingleCell_Standalone.iUpf.lo[0] packetDropNoCarrier:sum(packetBytes) 0
scalar SingleCell_Standalone.iUpf.ppp[0].queue queueLength:last 0
scalar SingleCell_Standalone.iUpf.ppp[0].queue queueLength:max 0
scalar SingleCell_Standalone.iUpf.ppp[0].queue queueLength:timeavg 0
scalar SingleCell_Standalone.iUpf.ppp[0].queue queueBitLength:last 0
scalar SingleCell_Standalone.iUpf.ppp[0].queue queueBitLength:max 0
scalar SingleCell_Standalone.iUpf.ppp[0].queue queueBitLength:timeavg 0
scalar SingleCell_Standalone.iUpf.ppp[0].queue outgoingPackets:count 661
scalar SingleCell_Standalone.iUpf.ppp[0].queue outgoingPacketLengths:sum 549952
scalar SingleCell_Standalone.iUpf.ppp[0].queue incomingPackets:count 661
scalar SingleCell_Standalone.iUpf.ppp[0].queue incomingPacketLengths:sum 549952
scalar SingleCell_Standalone.iUpf.ppp[0].queue droppedPacketsQueueOverflow:count 0
scalar SingleCell_Standalone.iUpf.ppp[0].queue droppedPacketLengthsQueueOverflow:sum 0
scalar SingleCell_Standalone.iUpf.ppp[0].ppp transmissionState:timeavg 2.9348399999999844e-06
scalar SingleCell_Standalone.iUpf.ppp[0].ppp rxPkOk:count 0
scalar SingleCell_Standalone.iUpf.ppp[0].ppp rxPkOk:sum(packetBytes) 0
scalar SingleCell_Standalone.iUpf.ppp[0].ppp txPk:count 661
scalar SingleCell_Standalone.iUpf.ppp[0].ppp txPk:sum(packetBytes) 73371
scalar SingleCell_Standalone.iUpf.ppp[0].ppp rcvdPkFromHl:count 661
scalar SingleCell_Standalone.iUpf.ppp[0].ppp rcvdPkFromHl:sum(packetBytes) 68744
scalar SingleCell_Standalone.iUpf.ppp[0].ppp passedUpPk:count 0
scalar SingleCell_Standalone.iUpf.ppp[0].ppp passedUpPk:sum(packetBytes) 0
scalar SingleCell_Standalone.iUpf.ppp[0].ppp packetDropIncorrectlyReceived:count 0
scalar SingleCell_Standalone.iUpf.ppp[0].ppp packetDropIncorrectlyReceived:sum(packetBytes) 0
scalar SingleCell_Standalone.iUpf.ppp[0].ppp packetDropInterfaceDown:count 0
scalar SingleCell_Standalone.iUpf.ppp[0].ppp packetDropInterfaceDown:sum(packetBytes) 0
scalar SingleCell_Standalone.iUpf.ppp[0] packetDropInterfaceDown:count 0
scalar SingleCell_Standalone.iUpf.ppp[0] packetDropInterfaceDown:sum(packetBytes) 0
scalar SingleCell_Standalone.iUpf.ppp[0] packetDropNoCarrier:count 0
scalar SingleCell_Standalone.iUpf.ppp[0] packetDropNoCarrier:sum(packetBytes) 0
scalar SingleCell_Standalone.iUpf.ppp[1].queue queueLength:last 0
scalar SingleCell_Standalone.iUpf.ppp[1].queue queueLength:max 0
scalar SingleCell_Standalone.iUpf.ppp[1].queue queueLength:timeavg 0
scalar SingleCell_Standalone.iUpf.ppp[1].queue queueBitLength:last 0
scalar SingleCell_Standalone.iUpf.ppp[1].queue queueBitLength:max 0
scalar SingleCell_Standalone.iUpf.ppp[1].queue queueBitLength:timeavg 0
scalar SingleCell_Standalone.iUpf.ppp[1].queue outgoingPackets:count 0
scalar SingleCell_Standalone.iUpf.ppp[1].queue outgoingPacketLengths:sum 0
scalar SingleCell_Standalone.iUpf.ppp[1].queue incomingPackets:count 0
scalar SingleCell_Standalone.iUpf.ppp[1].queue incomingPacketLengths:sum 0
scalar SingleCell_Standalone.iUpf.ppp[1].queue droppedPacketsQueueOverflow:count 0
scalar SingleCell_Standalone.iUpf.ppp[1].queue droppedPacketLengthsQueueOverflow:sum 0
scalar SingleCell_Standalone.iUpf.ppp[1].ppp transmissionState:timeavg 0
scalar SingleCell_Standalone.iUpf.ppp[1].ppp rxPkOk:count 661
scalar SingleCell_Standalone.iUpf.ppp[1].ppp rxPkOk:sum(packetBytes) 73371
scalar SingleCell_Standalone.iUpf.ppp[1].ppp txPk:count 0
scalar SingleCell_Standalone.iUpf.ppp[1].ppp txPk:sum(packetBytes) 0
scalar SingleCell_Standalone.iUpf.ppp[1].ppp rcvdPkFromHl:count 0
scalar SingleCell_Standalone.iUpf.ppp[1].ppp rcvdPkFromHl:sum(packetBytes) 0
scalar SingleCell_Standalone.iUpf.ppp[1].ppp passedUpPk:count 661
scalar SingleCell_Standalone.iUpf.ppp[1].ppp passedUpPk:sum(packetBytes) 68744
scalar SingleCell_Standalone.iUpf.ppp[1].ppp packetDropIncorrectlyReceived:count 0
scalar SingleCell_Standalone.iUpf.ppp[1].ppp packetDropIncorrectlyReceived:sum(packetBytes) 0
scalar SingleCell_Standalone.iUpf.ppp[1].ppp packetDropInterfaceDown:count 0
scalar SingleCell_Standalone.iUpf.ppp[1].ppp packetDropInterfaceDown:sum(packetBytes) 0
scalar SingleCell_Standalone.iUpf.ppp[1] packetDropInterfaceDown:count 0
scalar SingleCell_Standalone.iUpf.ppp[1] packetDropInterfaceDown:sum(packetBytes) 0
scalar SingleCell_Standalone.iUpf.ppp[1] packetDropNoCarrier:count 0
scalar SingleCell_Standalone.iUpf.ppp[1] packetDropNoCarrier:sum(packetBytes) 0
scalar SingleCell_Standalone.iUpf.ipv4.ip packetDropAddressResolutionFailed:count 0
scalar SingleCell_Standalone.iUpf.ipv4.ip packetDropAddressResolutionFailed:sum(packetBytes) 0
scalar SingleCell_Standalone.iUpf.ipv4.ip packetDropHopLimitReached:count 0
scalar SingleCell_Standalone.iUpf.ipv4.ip packetDropHopLimitReached:sum(packetBytes) 0
scalar SingleCell_Standalone.iUpf.ipv4.ip packetDropForwardingDisabled:count 0
scalar SingleCell_Standalone.iUpf.ipv4.ip packetDropForwardingDisabled:sum(packetBytes) 0
scalar SingleCell_Standalone.iUpf.ipv4.ip packetDropNoInterfaceFound:count 0
scalar SingleCell_Standalone.iUpf.ipv4.ip packetDropNoInterfaceFound:sum(packetBytes) 0
scalar SingleCell_Standalone.iUpf.ipv4.ip packetDropNoRouteFound:count 0
scalar SingleCell_Standalone.iUpf.ipv4.ip packetDropNoRouteFound:sum(packetBytes) 0
scalar SingleCell_Standalone.iUpf.ipv4.ip packetDropUndefined:count 0
scalar SingleCell_Standalone.iUpf.ipv4.ip packetDropUndefined:sum(packetBytes) 0
scalar SingleCell_Standalone.iUpf.ipv4.arp arpResolutionFailed:count 0
scalar SingleCell_Standalone.iUpf.ipv4.arp arpResolutionCompleted:count 0
scalar SingleCell_Standalone.iUpf.ipv4.arp arpResolutionInitiated:count 0
scalar SingleCell_Standalone.iUpf.ipv4.arp arpReplySent:count 0
scalar SingleCell_Standalone.iUpf.ipv4.arp arpReplySent:sum(packetBytes) 0
scalar SingleCell_Standalone.iUpf.ipv4.arp arpRequestSent:count 0
scalar SingleCell_Standalone.iUpf.ipv4.arp arpRequestSent:sum(packetBytes) 0
scalar SingleCell_Standalone.iUpf.pppIf.queue queueLength:last 0
scalar SingleCell_Standalone.iUpf.pppIf.queue queueLength:max 0
scalar SingleCell_Standalone.iUpf.pppIf.queue queueLength:timeavg 0
scalar SingleCell_Standalone.iUpf.pppIf.queue queueBitLength:last 0
scalar SingleCell_Standalone.iUpf.pppIf.queue queueBitLength:max 0
scalar SingleCell_Standalone.iUpf.pppIf.queue queueBitLength:timeavg 0
scalar SingleCell_Standalone.iUpf.pppIf.queue outgoingPackets:count 0
scalar SingleCell_Standalone.iUpf.pppIf.queue outgoingPacketLengths:sum 0
scalar SingleCell_Standalone.iUpf.pppIf.queue incomingPackets:count 0
scalar SingleCell_Standalone.iUpf.pppIf.queue incomingPacketLengths:sum 0
scalar SingleCell_Standalone.iUpf.pppIf.queue droppedPacketsQueueOverflow:count 0
scalar SingleCell_Standalone.iUpf.pppIf.queue droppedPacketLengthsQueueOverflow:sum 0
scalar SingleCell_Standalone.iUpf.pppIf.ppp transmissionState:timeavg 0
scalar SingleCell_Standalone.iUpf.pppIf.ppp rxPkOk:count 0
scalar SingleCell_Standalone.iUpf.pppIf.ppp rxPkOk:sum(packetBytes) 0
scalar SingleCell_Standalone.iUpf.pppIf.ppp txPk:count 0
scalar SingleCell_Standalone.iUpf.pppIf.ppp txPk:sum(packetBytes) 0
scalar SingleCell_Standalone.iUpf.pppIf.ppp rcvdPkFromHl:count 0
scalar SingleCell_Standalone.iUpf.pppIf.ppp rcvdPkFromHl:sum(packetBytes) 0
scalar SingleCell_Standalone.iUpf.pppIf.ppp passedUpPk:count 0
scalar SingleCell_Standalone.iUpf.pppIf.ppp passedUpPk:sum(packetBytes) 0
scalar SingleCell_Standalone.iUpf.pppIf.ppp packetDropIncorrectlyReceived:count 0
scalar SingleCell_Standalone.iUpf.pppIf.ppp packetDropIncorrectlyReceived:sum(packetBytes) 0
scalar SingleCell_Standalone.iUpf.pppIf.ppp packetDropInterfaceDown:count 0
scalar SingleCell_Standalone.iUpf.pppIf.ppp packetDropInterfaceDown:sum(packetBytes) 0
scalar SingleCell_Standalone.iUpf.pppIf packetDropInterfaceDown:count 0
scalar SingleCell_Standalone.iUpf.pppIf packetDropInterfaceDown:sum(packetBytes) 0
scalar SingleCell_Standalone.iUpf.pppIf packetDropNoCarrier:count 0
scalar SingleCell_Standalone.iUpf.pppIf packetDropNoCarrier:sum(packetBytes) 0
scalar SingleCell_Standalone.iUpf.udp packetReceived:count 0
scalar SingleCell_Standalone.iUpf.udp packetReceived:sum(packetBytes) 0
scalar SingleCell_Standalone.iUpf.udp packetSent:count 0
scalar SingleCell_Standalone.iUpf.udp packetSent:sum(packetBytes) 0
scalar SingleCell_Standalone.iUpf.udp passedUpPk:count 0
scalar SingleCell_Standalone.iUpf.udp droppedPkWrongPort:count 0
scalar SingleCell_Standalone.iUpf.udp droppedPkBadChecksum:count 0
scalar SingleCell_Standalone.gnb.cellularNic.pdcp sentPacketToLowerLayer:count 0
scalar SingleCell_Standalone.gnb.cellularNic.pdcp sentPacketToLowerLayer:sum(packetBytes) 0
scalar SingleCell_Standalone.gnb.cellularNic.pdcp sentPacketToUpperLayer:count 661
scalar SingleCell_Standalone.gnb.cellularNic.pdcp sentPacketToUpperLayer:sum(packetBytes) 44948
scalar SingleCell_Standalone.gnb.cellularNic.pdcp receivedPacketFromLowerLayer:count 661
scalar SingleCell_Standalone.gnb.cellularNic.pdcp receivedPacketFromLowerLayer:sum(packetBytes) 45609
scalar SingleCell_Standalone.gnb.cellularNic.pdcp receivedPacketFromUpperLayer:count 0
scalar SingleCell_Standalone.gnb.cellularNic.pdcp receivedPacketFromUpperLayer:sum(packetBytes) 0
scalar SingleCell_Standalone.gnb.cellularNic.rlc.tm rlcPacketLossUl:mean -nan
scalar SingleCell_Standalone.gnb.cellularNic.rlc.tm rlcPacketLossUl:sum 0
scalar SingleCell_Standalone.gnb.cellularNic.rlc.tm rlcPacketLossDl:mean -nan
scalar SingleCell_Standalone.gnb.cellularNic.rlc.tm rlcPacketLossDl:sum 0
scalar SingleCell_Standalone.gnb.cellularNic.rlc.tm sentPacketToLowerLayer:count 0
scalar SingleCell_Standalone.gnb.cellularNic.rlc.tm sentPacketToLowerLayer:sum(packetBytes) 0
scalar SingleCell_Standalone.gnb.cellularNic.rlc.tm sentPacketToUpperLayer:count 0
scalar SingleCell_Standalone.gnb.cellularNic.rlc.tm sentPacketToUpperLayer:sum(packetBytes) 0
scalar SingleCell_Standalone.gnb.cellularNic.rlc.tm receivedPacketFromLowerLayer:count 0
scalar SingleCell_Standalone.gnb.cellularNic.rlc.tm receivedPacketFromLowerLayer:sum(packetBytes) 0
scalar SingleCell_Standalone.gnb.cellularNic.rlc.tm receivedPacketFromUpperLayer:count 0
scalar SingleCell_Standalone.gnb.cellularNic.rlc.tm receivedPacketFromUpperLayer:sum(packetBytes) 0
scalar SingleCell_Standalone.gnb.cellularNic.rlc.um rlcCellThroughputD2D:simu5g_rateavg -nan
scalar SingleCell_Standalone.gnb.cellularNic.rlc.um rlcPduThroughputD2D:simu5g_rateavg -nan
scalar SingleCell_Standalone.gnb.cellularNic.rlc.um rlcPduDelayD2D:mean -nan
scalar SingleCell_Standalone.gnb.cellularNic.rlc.um rlcThroughputD2D:simu5g_rateavg -nan
scalar SingleCell_Standalone.gnb.cellularNic.rlc.um rlcDelayD2D:mean -nan
scalar SingleCell_Standalone.gnb.cellularNic.rlc.um rlcCellThroughputUl:simu5g_rateavg 2531.8888181822899
scalar SingleCell_Standalone.gnb.cellularNic.rlc.um rlcCellThroughputDl:simu5g_rateavg -nan
scalar SingleCell_Standalone.gnb.cellularNic.rlc.um rlcPduThroughputUl:simu5g_rateavg -nan
scalar SingleCell_Standalone.gnb.cellularNic.rlc.um rlcPduThroughputDl:simu5g_rateavg -nan
scalar SingleCell_Standalone.gnb.cellularNic.rlc.um rlcPduDelayUl:mean -nan
scalar SingleCell_Standalone.gnb.cellularNic.rlc.um rlcPduDelayDl:mean -nan
scalar SingleCell_Standalone.gnb.cellularNic.rlc.um rlcThroughputUl:simu5g_rateavg -nan
scalar SingleCell_Standalone.gnb.cellularNic.rlc.um rlcThroughputDl:simu5g_rateavg -nan
scalar SingleCell_Standalone.gnb.cellularNic.rlc.um rlcDelayUl:mean -nan
scalar SingleCell_Standalone.gnb.cellularNic.rlc.um rlcDelayDl:mean -nan
scalar SingleCell_Standalone.gnb.cellularNic.rlc.um sentPacketToLowerLayer:count 0
scalar SingleCell_Standalone.gnb.cellularNic.rlc.um sentPacketToLowerLayer:sum(packetBytes) 0
scalar SingleCell_Standalone.gnb.cellularNic.rlc.um sentPacketToUpperLayer:count 661
scalar SingleCell_Standalone.gnb.cellularNic.rlc.um sentPacketToUpperLayer:sum(packetBytes) 45609
scalar SingleCell_Standalone.gnb.cellularNic.rlc.um receivedPacketFromLowerLayer:count 598
scalar SingleCell_Standalone.gnb.cellularNic.rlc.um receivedPacketFromLowerLayer:sum(packetBytes) 46805
scalar SingleCell_Standalone.gnb.cellularNic.rlc.um receivedPacketFromUpperLayer:count 0
scalar SingleCell_Standalone.gnb.cellularNic.rlc.um receivedPacketFromUpperLayer:sum(packetBytes) 0
scalar SingleCell_Standalone.gnb.cellularNic.rlc.am rlcPacketLossTotal:mean -nan
scalar SingleCell_Standalone.gnb.cellularNic.rlc.am rlcCellThroughputUl:simu5g_rateavg -nan
scalar SingleCell_Standalone.gnb.cellularNic.rlc.am rlcCellThroughputDl:simu5g_rateavg -nan
scalar SingleCell_Standalone.gnb.cellularNic.rlc.am rlcPduThroughputUl:simu5g_rateavg -nan
scalar SingleCell_Standalone.gnb.cellularNic.rlc.am rlcPduThroughputDl:simu5g_rateavg -nan
scalar SingleCell_Standalone.gnb.cellularNic.rlc.am rlcPduDelayUl:mean -nan
scalar SingleCell_Standalone.gnb.cellularNic.rlc.am rlcPduDelayDl:mean -nan
scalar SingleCell_Standalone.gnb.cellularNic.rlc.am rlcThroughputUl:simu5g_rateavg -nan
scalar SingleCell_Standalone.gnb.cellularNic.rlc.am rlcThroughputDl:simu5g_rateavg -nan
scalar SingleCell_Standalone.gnb.cellularNic.rlc.am rlcDelayUl:mean -nan
scalar SingleCell_Standalone.gnb.cellularNic.rlc.am rlcDelayDl:mean -nan
scalar SingleCell_Standalone.gnb.cellularNic.rlc.am rlcPduPacketLossUl:mean -nan
scalar SingleCell_Standalone.gnb.cellularNic.rlc.am rlcPduPacketLossDl:mean -nan
scalar SingleCell_Standalone.gnb.cellularNic.rlc.am rlcPacketLossUl:mean -nan
scalar SingleCell_Standalone.gnb.cellularNic.rlc.am rlcPacketLossDl:mean -nan
scalar SingleCell_Standalone.gnb.cellularNic.rlc.am rlcCellPacketLossUl:mean -nan
scalar SingleCell_Standalone.gnb.cellularNic.rlc.am rlcCellPacketLossDl:mean -nan
scalar SingleCell_Standalone.gnb.cellularNic.mac avgServedBlocksUl:mean 0.029899999999999999
scalar SingleCell_Standalone.gnb.cellularNic.mac avgServedBlocksDl:mean 0
scalar SingleCell_Standalone.gnb.cellularNic.mac macCellPacketLossD2D:mean -nan
scalar SingleCell_Standalone.gnb.cellularNic.mac macCellThroughputD2D:simu5g_rateavg -nan
scalar SingleCell_Standalone.gnb.cellularNic.mac harqTxAttemptsUl:mean -nan
scalar SingleCell_Standalone.gnb.cellularNic.mac harqTxAttemptsDl:mean -nan
scalar SingleCell_Standalone.gnb.cellularNic.mac harqErrorRate_4th_Ul:mean -nan
scalar SingleCell_Standalone.gnb.cellularNic.mac harqErrorRate_4th_Dl:mean -nan
scalar SingleCell_Standalone.gnb.cellularNic.mac harqErrorRate_3rd_Ul:mean -nan
scalar SingleCell_Standalone.gnb.cellularNic.mac harqErrorRate_3rd_Dl:mean -nan
scalar SingleCell_Standalone.gnb.cellularNic.mac harqErrorRate_2nd_Ul:mean -nan
scalar SingleCell_Standalone.gnb.cellularNic.mac harqErrorRate_2nd_Dl:mean -nan
scalar SingleCell_Standalone.gnb.cellularNic.mac harqErrorRate_1st_Ul:mean -nan
scalar SingleCell_Standalone.gnb.cellularNic.mac harqErrorRate_1st_Dl:mean -nan
scalar SingleCell_Standalone.gnb.cellularNic.mac harqErrorRateUl:mean -nan
scalar SingleCell_Standalone.gnb.cellularNic.mac harqErrorRateDl:mean -nan
scalar SingleCell_Standalone.gnb.cellularNic.mac macCellPacketLossUl:mean 0
scalar SingleCell_Standalone.gnb.cellularNic.mac macCellPacketLossDl:mean -nan
scalar SingleCell_Standalone.gnb.cellularNic.mac macPacketLossUl:mean -nan
scalar SingleCell_Standalone.gnb.cellularNic.mac macPacketLossDl:mean -nan
scalar SingleCell_Standalone.gnb.cellularNic.mac macThroughputUl:simu5g_rateavg -nan
scalar SingleCell_Standalone.gnb.cellularNic.mac macThroughputDl:simu5g_rateavg -nan
scalar SingleCell_Standalone.gnb.cellularNic.mac macDelayUl:mean -nan
scalar SingleCell_Standalone.gnb.cellularNic.mac macDelayDl:mean -nan
scalar SingleCell_Standalone.gnb.cellularNic.mac macCellThroughputUl:simu5g_rateavg 2666.8797953726066
scalar SingleCell_Standalone.gnb.cellularNic.mac macCellThroughputDl:simu5g_rateavg -nan
scalar SingleCell_Standalone.gnb.cellularNic.mac sentPacketToLowerLayer:count 1794
scalar SingleCell_Standalone.gnb.cellularNic.mac sentPacketToLowerLayer:sum(packetBytes) 1794
scalar SingleCell_Standalone.gnb.cellularNic.mac sentPacketToUpperLayer:count 598
scalar SingleCell_Standalone.gnb.cellularNic.mac sentPacketToUpperLayer:sum(packetBytes) 46805
scalar SingleCell_Standalone.gnb.cellularNic.mac receivedPacketFromLowerLayer:count 4531
scalar SingleCell_Standalone.gnb.cellularNic.mac receivedPacketFromLowerLayer:sum(packetBytes) 51934
scalar SingleCell_Standalone.gnb.cellularNic.mac receivedPacketFromUpperLayer:count 0
scalar SingleCell_Standalone.gnb.cellularNic.mac receivedPacketFromUpperLayer:sum(packetBytes) 0
scalar SingleCell_Standalone.gnb.cellularNic.mac macBufferOverFlowD2D:mean -nan
scalar SingleCell_Standalone.gnb.cellularNic.mac macBufferOverFlowUl:mean -nan
scalar SingleCell_Standalone.gnb.cellularNic.mac macBufferOverFlowDl:mean -nan
scalar SingleCell_Standalone.gnb.cellularNic.channelModel[0] measuredSinrUl:mean -nan
scalar SingleCell_Standalone.gnb.cellularNic.channelModel[0] measuredSinrDl:mean -nan
scalar SingleCell_Standalone.gnb.cellularNic.channelModel[0] rcvdSinrD2D:mean -nan
scalar SingleCell_Standalone.gnb.cellularNic.channelModel[0] rcvdSinrUl:mean -nan
scalar SingleCell_Standalone.gnb.cellularNic.channelModel[0] rcvdSinrDl:mean -nan
scalar SingleCell_Standalone.gnb.cellularNic packetDropInterfaceDown:count 0
scalar SingleCell_Standalone.gnb.cellularNic packetDropInterfaceDown:sum(packetBytes) 0
scalar SingleCell_Standalone.gnb.cellularNic packetDropNoCarrier:count 0
scalar SingleCell_Standalone.gnb.cellularNic packetDropNoCarrier:sum(packetBytes) 0
scalar SingleCell_Standalone.gnb.pppIf.queue queueLength:last 0
scalar SingleCell_Standalone.gnb.pppIf.queue queueLength:max 1
scalar SingleCell_Standalone.gnb.pppIf.queue queueLength:timeavg 2.7971999999999975e-07
scalar SingleCell_Standalone.gnb.pppIf.queue queueBitLength:last 0
scalar SingleCell_Standalone.gnb.pppIf.queue queueBitLength:max 832
scalar SingleCell_Standalone.gnb.pppIf.queue queueBitLength:timeavg 0.00023272703999999969
scalar SingleCell_Standalone.gnb.pppIf.queue outgoingPackets:count 661
scalar SingleCell_Standalone.gnb.pppIf.queue outgoingPacketLengths:sum 549952
scalar SingleCell_Standalone.gnb.pppIf.queue incomingPackets:count 661
scalar SingleCell_Standalone.gnb.pppIf.queue incomingPacketLengths:sum 549952
scalar SingleCell_Standalone.gnb.pppIf.queue droppedPacketsQueueOverflow:count 0
scalar SingleCell_Standalone.gnb.pppIf.queue droppedPacketLengthsQueueOverflow:sum 0
scalar SingleCell_Standalone.gnb.pppIf.ppp transmissionState:timeavg 2.9348399999999844e-06
scalar SingleCell_Standalone.gnb.pppIf.ppp rxPkOk:count 0
scalar SingleCell_Standalone.gnb.pppIf.ppp rxPkOk:sum(packetBytes) 0
scalar SingleCell_Standalone.gnb.pppIf.ppp txPk:count 661
scalar SingleCell_Standalone.gnb.pppIf.ppp txPk:sum(packetBytes) 73371
scalar SingleCell_Standalone.gnb.pppIf.ppp rcvdPkFromHl:count 661
scalar SingleCell_Standalone.gnb.pppIf.ppp rcvdPkFromHl:sum(packetBytes) 68744
scalar SingleCell_Standalone.gnb.pppIf.ppp passedUpPk:count 0
scalar SingleCell_Standalone.gnb.pppIf.ppp passedUpPk:sum(packetBytes) 0
scalar SingleCell_Standalone.gnb.pppIf.ppp packetDropIncorrectlyReceived:count 0
scalar SingleCell_Standalone.gnb.pppIf.ppp packetDropIncorrectlyReceived:sum(packetBytes) 0
scalar SingleCell_Standalone.gnb.pppIf.ppp packetDropInterfaceDown:count 0
scalar SingleCell_Standalone.gnb.pppIf.ppp packetDropInterfaceDown:sum(packetBytes) 0
scalar SingleCell_Standalone.gnb.pppIf packetDropInterfaceDown:count 0
scalar SingleCell_Standalone.gnb.pppIf packetDropInterfaceDown:sum(packetBytes) 0
scalar SingleCell_Standalone.gnb.pppIf packetDropNoCarrier:count 0
scalar SingleCell_Standalone.gnb.pppIf packetDropNoCarrier:sum(packetBytes) 0
scalar SingleCell_Standalone.gnb.pppMEHostIf.queue queueLength:last 0
scalar SingleCell_Standalone.gnb.pppMEHostIf.queue queueLength:max 0
scalar SingleCell_Standalone.gnb.pppMEHostIf.queue queueLength:timeavg 0
scalar SingleCell_Standalone.gnb.pppMEHostIf.queue queueBitLength:last 0
scalar SingleCell_Standalone.gnb.pppMEHostIf.queue queueBitLength:max 0
scalar SingleCell_Standalone.gnb.pppMEHostIf.queue queueBitLength:timeavg 0
scalar SingleCell_Standalone.gnb.pppMEHostIf.queue outgoingPackets:count 0
scalar SingleCell_Standalone.gnb.pppMEHostIf.queue outgoingPacketLengths:sum 0
scalar SingleCell_Standalone.gnb.pppMEHostIf.queue incomingPackets:count 0
scalar SingleCell_Standalone.gnb.pppMEHostIf.queue incomingPacketLengths:sum 0
scalar SingleCell_Standalone.gnb.pppMEHostIf.queue droppedPacketsQueueOverflow:count 0
scalar SingleCell_Standalone.gnb.pppMEHostIf.queue droppedPacketLengthsQueueOverflow:sum 0
scalar SingleCell_Standalone.gnb.pppMEHostIf.ppp transmissionState:timeavg 0
scalar SingleCell_Standalone.gnb.pppMEHostIf.ppp rxPkOk:count 0
scalar SingleCell_Standalone.gnb.pppMEHostIf.ppp rxPkOk:sum(packetBytes) 0
scalar SingleCell_Standalone.gnb.pppMEHostIf.ppp txPk:count 0
scalar SingleCell_Standalone.gnb.pppMEHostIf.ppp txPk:sum(packetBytes) 0
scalar SingleCell_Standalone.gnb.pppMEHostIf.ppp rcvdPkFromHl:count 0
scalar SingleCell_Standalone.gnb.pppMEHostIf.ppp rcvdPkFromHl:sum(packetBytes) 0
scalar SingleCell_Standalone.gnb.pppMEHostIf.ppp passedUpPk:count 0
scalar SingleCell_Standalone.gnb.pppMEHostIf.ppp passedUpPk:sum(packetBytes) 0
scalar SingleCell_Standalone.gnb.pppMEHostIf.ppp packetDropIncorrectlyReceived:count 0
scalar SingleCell_Standalone.gnb.pppMEHostIf.ppp packetDropIncorrectlyReceived:sum(packetBytes) 0
scalar SingleCell_Standalone.gnb.pppMEHostIf.ppp packetDropInterfaceDown:count 0
scalar SingleCell_Standalone.gnb.pppMEHostIf.ppp packetDropInterfaceDown:sum(packetBytes) 0
scalar SingleCell_Standalone.gnb.pppMEHostIf packetDropInterfaceDown:count 0
scalar SingleCell_Standalone.gnb.pppMEHostIf packetDropInterfaceDown:sum(packetBytes) 0
scalar SingleCell_Standalone.gnb.pppMEHostIf packetDropNoCarrier:count 0
scalar SingleCell_Standalone.gnb.pppMEHostIf packetDropNoCarrier:sum(packetBytes) 0
scalar SingleCell_Standalone.gnb.ipv4.ip packetDropAddressResolutionFailed:count 0
scalar SingleCell_Standalone.gnb.ipv4.ip packetDropAddressResolutionFailed:sum(packetBytes) 0
scalar SingleCell_Standalone.gnb.ipv4.ip packetDropHopLimitReached:count 0
scalar SingleCell_Standalone.gnb.ipv4.ip packetDropHopLimitReached:sum(packetBytes) 0
scalar SingleCell_Standalone.gnb.ipv4.ip packetDropForwardingDisabled:count 0
scalar SingleCell_Standalone.gnb.ipv4.ip packetDropForwardingDisabled:sum(packetBytes) 0
scalar SingleCell_Standalone.gnb.ipv4.ip packetDropNoInterfaceFound:count 0
scalar SingleCell_Standalone.gnb.ipv4.ip packetDropNoInterfaceFound:sum(packetBytes) 0
scalar SingleCell_Standalone.gnb.ipv4.ip packetDropNoRouteFound:count 0
scalar SingleCell_Standalone.gnb.ipv4.ip packetDropNoRouteFound:sum(packetBytes) 0
scalar SingleCell_Standalone.gnb.ipv4.ip packetDropUndefined:count 0
scalar SingleCell_Standalone.gnb.ipv4.ip packetDropUndefined:sum(packetBytes) 0
scalar SingleCell_Standalone.gnb.ipv4.arp arpResolutionFailed:count 0
scalar SingleCell_Standalone.gnb.ipv4.arp arpResolutionCompleted:count 0
scalar SingleCell_Standalone.gnb.ipv4.arp arpResolutionInitiated:count 0
scalar SingleCell_Standalone.gnb.ipv4.arp arpReplySent:count 0
scalar SingleCell_Standalone.gnb.ipv4.arp arpReplySent:sum(packetBytes) 0
scalar SingleCell_Standalone.gnb.ipv4.arp arpRequestSent:count 0
scalar SingleCell_Standalone.gnb.ipv4.arp arpRequestSent:sum(packetBytes) 0
scalar SingleCell_Standalone.gnb.udp packetReceived:count 0
scalar SingleCell_Standalone.gnb.udp packetReceived:sum(packetBytes) 0
scalar SingleCell_Standalone.gnb.udp packetSent:count 661
scalar SingleCell_Standalone.gnb.udp packetSent:sum(packetBytes) 55524
scalar SingleCell_Standalone.gnb.udp passedUpPk:count 0
scalar SingleCell_Standalone.gnb.udp droppedPkWrongPort:count 0
scalar SingleCell_Standalone.gnb.udp droppedPkBadChecksum:count 0
scalar SingleCell_Standalone.ue[0].lo[0].lo rcvdPkFromHl:count 0
scalar SingleCell_Standalone.ue[0].lo[0].lo rcvdPkFromHl:sum(packetBytes) 0
scalar SingleCell_Standalone.ue[0].lo[0].lo passedUpPk:count 0
scalar SingleCell_Standalone.ue[0].lo[0].lo passedUpPk:sum(packetBytes) 0
scalar SingleCell_Standalone.ue[0].lo[0] packetDropInterfaceDown:count 0
scalar SingleCell_Standalone.ue[0].lo[0] packetDropInterfaceDown:sum(packetBytes) 0
scalar SingleCell_Standalone.ue[0].lo[0] packetDropNoCarrier:count 0
scalar SingleCell_Standalone.ue[0].lo[0] packetDropNoCarrier:sum(packetBytes) 0
scalar SingleCell_Standalone.ue[0].cellularNic.pdcp sentPacketToLowerLayer:count 662
scalar SingleCell_Standalone.ue[0].cellularNic.pdcp sentPacketToLowerLayer:sum(packetBytes) 45678
scalar SingleCell_Standalone.ue[0].cellularNic.pdcp sentPacketToUpperLayer:count 0
scalar SingleCell_Standalone.ue[0].cellularNic.pdcp sentPacketToUpperLayer:sum(packetBytes) 0
scalar SingleCell_Standalone.ue[0].cellularNic.pdcp receivedPacketFromLowerLayer:count 0
scalar SingleCell_Standalone.ue[0].cellularNic.pdcp receivedPacketFromLowerLayer:sum(packetBytes) 0
scalar SingleCell_Standalone.ue[0].cellularNic.pdcp receivedPacketFromUpperLayer:count 662
scalar SingleCell_Standalone.ue[0].cellularNic.pdcp receivedPacketFromUpperLayer:sum(packetBytes) 45016
scalar SingleCell_Standalone.ue[0].cellularNic.rlc.tm rlcPacketLossUl:mean -nan
scalar SingleCell_Standalone.ue[0].cellularNic.rlc.tm rlcPacketLossUl:sum 0
scalar SingleCell_Standalone.ue[0].cellularNic.rlc.tm rlcPacketLossDl:mean -nan
scalar SingleCell_Standalone.ue[0].cellularNic.rlc.tm rlcPacketLossDl:sum 0
scalar SingleCell_Standalone.ue[0].cellularNic.rlc.tm sentPacketToLowerLayer:count 0
scalar SingleCell_Standalone.ue[0].cellularNic.rlc.tm sentPacketToLowerLayer:sum(packetBytes) 0
scalar SingleCell_Standalone.ue[0].cellularNic.rlc.tm sentPacketToUpperLayer:count 0
scalar SingleCell_Standalone.ue[0].cellularNic.rlc.tm sentPacketToUpperLayer:sum(packetBytes) 0
scalar SingleCell_Standalone.ue[0].cellularNic.rlc.tm receivedPacketFromLowerLayer:count 0
scalar SingleCell_Standalone.ue[0].cellularNic.rlc.tm receivedPacketFromLowerLayer:sum(packetBytes) 0
scalar SingleCell_Standalone.ue[0].cellularNic.rlc.tm receivedPacketFromUpperLayer:count 0
scalar SingleCell_Standalone.ue[0].cellularNic.rlc.tm receivedPacketFromUpperLayer:sum(packetBytes) 0
scalar SingleCell_Standalone.ue[0].cellularNic.rlc.um rlcCellThroughputD2D:simu5g_rateavg -nan
scalar SingleCell_Standalone.ue[0].cellularNic.rlc.um rlcPduThroughputD2D:simu5g_rateavg -nan
scalar SingleCell_Standalone.ue[0].cellularNic.rlc.um rlcPduDelayD2D:mean -nan
scalar SingleCell_Standalone.ue[0].cellularNic.rlc.um rlcThroughputD2D:simu5g_rateavg -nan
scalar SingleCell_Standalone.ue[0].cellularNic.rlc.um rlcDelayD2D:mean -nan
scalar SingleCell_Standalone.ue[0].cellularNic.rlc.um rlcCellThroughputUl:simu5g_rateavg -nan
scalar SingleCell_Standalone.ue[0].cellularNic.rlc.um rlcCellThroughputDl:simu5g_rateavg -nan
scalar SingleCell_Standalone.ue[0].cellularNic.rlc.um rlcPduThroughputUl:simu5g_rateavg -nan
scalar SingleCell_Standalone.ue[0].cellularNic.rlc.um rlcPduThroughputDl:simu5g_rateavg -nan
scalar SingleCell_Standalone.ue[0].cellularNic.rlc.um rlcPduDelayUl:mean -nan
scalar SingleCell_Standalone.ue[0].cellularNic.rlc.um rlcPduDelayDl:mean -nan
scalar SingleCell_Standalone.ue[0].cellularNic.rlc.um rlcThroughputUl:simu5g_rateavg -nan
scalar SingleCell_Standalone.ue[0].cellularNic.rlc.um rlcThroughputDl:simu5g_rateavg -nan
scalar SingleCell_Standalone.ue[0].cellularNic.rlc.um rlcDelayUl:mean -nan
scalar SingleCell_Standalone.ue[0].cellularNic.rlc.um rlcDelayDl:mean -nan
scalar SingleCell_Standalone.ue[0].cellularNic.rlc.um sentPacketToLowerLayer:count 0
scalar SingleCell_Standalone.ue[0].cellularNic.rlc.um sentPacketToLowerLayer:sum(packetBytes) 0
scalar SingleCell_Standalone.ue[0].cellularNic.rlc.um sentPacketToUpperLayer:count 0
scalar SingleCell_Standalone.ue[0].cellularNic.rlc.um sentPacketToUpperLayer:sum(packetBytes) 0
scalar SingleCell_Standalone.ue[0].cellularNic.rlc.um receivedPacketFromLowerLayer:count 0
scalar SingleCell_Standalone.ue[0].cellularNic.rlc.um receivedPacketFromLowerLayer:sum(packetBytes) 0
scalar SingleCell_Standalone.ue[0].cellularNic.rlc.um receivedPacketFromUpperLayer:count 0
scalar SingleCell_Standalone.ue[0].cellularNic.rlc.um receivedPacketFromUpperLayer:sum(packetBytes) 0
scalar SingleCell_Standalone.ue[0].cellularNic.rlc.am rlcPacketLossTotal:mean -nan
scalar SingleCell_Standalone.ue[0].cellularNic.rlc.am rlcCellThroughputUl:simu5g_rateavg -nan
scalar SingleCell_Standalone.ue[0].cellularNic.rlc.am rlcCellThroughputDl:simu5g_rateavg -nan
scalar SingleCell_Standalone.ue[0].cellularNic.rlc.am rlcPduThroughputUl:simu5g_rateavg -nan
scalar SingleCell_Standalone.ue[0].cellularNic.rlc.am rlcPduThroughputDl:simu5g_rateavg -nan
scalar SingleCell_Standalone.ue[0].cellularNic.rlc.am rlcPduDelayUl:mean -nan
scalar SingleCell_Standalone.ue[0].cellularNic.rlc.am rlcPduDelayDl:mean -nan
scalar SingleCell_Standalone.ue[0].cellularNic.rlc.am rlcThroughputUl:simu5g_rateavg -nan
scalar SingleCell_Standalone.ue[0].cellularNic.rlc.am rlcThroughputDl:simu5g_rateavg -nan
scalar SingleCell_Standalone.ue[0].cellularNic.rlc.am rlcDelayUl:mean -nan
scalar SingleCell_Standalone.ue[0].cellularNic.rlc.am rlcDelayDl:mean -nan
scalar SingleCell_Standalone.ue[0].cellularNic.rlc.am rlcPduPacketLossUl:mean -nan
scalar SingleCell_Standalone.ue[0].cellularNic.rlc.am rlcPduPacketLossDl:mean -nan
scalar SingleCell_Standalone.ue[0].cellularNic.rlc.am rlcPacketLossUl:mean -nan
scalar SingleCell_Standalone.ue[0].cellularNic.rlc.am rlcPacketLossDl:mean -nan
scalar SingleCell_Standalone.ue[0].cellularNic.rlc.am rlcCellPacketLossUl:mean -nan
scalar SingleCell_Standalone.ue[0].cellularNic.rlc.am rlcCellPacketLossDl:mean -nan
scalar SingleCell_Standalone.ue[0].cellularNic.mac harqErrorRate_4th_D2D:mean -nan
scalar SingleCell_Standalone.ue[0].cellularNic.mac harqErrorRate_3rd_D2D:mean -nan
scalar SingleCell_Standalone.ue[0].cellularNic.mac harqErrorRate_2nd_D2D:mean -nan
scalar SingleCell_Standalone.ue[0].cellularNic.mac harqErrorRate_1st_D2D:mean -nan
scalar SingleCell_Standalone.ue[0].cellularNic.mac harqErrorRateD2D:mean -nan
scalar SingleCell_Standalone.ue[0].cellularNic.mac macPacketLossD2D:mean -nan
scalar SingleCell_Standalone.ue[0].cellularNic.mac macDelayD2D:mean -nan
scalar SingleCell_Standalone.ue[0].cellularNic.mac macThroughputD2D:simu5g_rateavg -nan
scalar SingleCell_Standalone.ue[0].cellularNic.mac harqTxAttemptsUl:mean -nan
scalar SingleCell_Standalone.ue[0].cellularNic.mac harqTxAttemptsDl:mean -nan
scalar SingleCell_Standalone.ue[0].cellularNic.mac harqErrorRate_4th_Ul:mean -nan
scalar SingleCell_Standalone.ue[0].cellularNic.mac harqErrorRate_4th_Dl:mean -nan
scalar SingleCell_Standalone.ue[0].cellularNic.mac harqErrorRate_3rd_Ul:mean -nan
scalar SingleCell_Standalone.ue[0].cellularNic.mac harqErrorRate_3rd_Dl:mean -nan
scalar SingleCell_Standalone.ue[0].cellularNic.mac harqErrorRate_2nd_Ul:mean -nan
scalar SingleCell_Standalone.ue[0].cellularNic.mac harqErrorRate_2nd_Dl:mean -nan
scalar SingleCell_Standalone.ue[0].cellularNic.mac harqErrorRate_1st_Ul:mean -nan
scalar SingleCell_Standalone.ue[0].cellularNic.mac harqErrorRate_1st_Dl:mean -nan
scalar SingleCell_Standalone.ue[0].cellularNic.mac harqErrorRateUl:mean -nan
scalar SingleCell_Standalone.ue[0].cellularNic.mac harqErrorRateDl:mean -nan
scalar SingleCell_Standalone.ue[0].cellularNic.mac macCellPacketLossUl:mean -nan
scalar SingleCell_Standalone.ue[0].cellularNic.mac macCellPacketLossDl:mean -nan
scalar SingleCell_Standalone.ue[0].cellularNic.mac macPacketLossUl:mean -nan
scalar SingleCell_Standalone.ue[0].cellularNic.mac macPacketLossDl:mean -nan
scalar SingleCell_Standalone.ue[0].cellularNic.mac macThroughputUl:simu5g_rateavg -nan
scalar SingleCell_Standalone.ue[0].cellularNic.mac macThroughputDl:simu5g_rateavg -nan
scalar SingleCell_Standalone.ue[0].cellularNic.mac macDelayUl:mean -nan
scalar SingleCell_Standalone.ue[0].cellularNic.mac macDelayDl:mean -nan
scalar SingleCell_Standalone.ue[0].cellularNic.mac macCellThroughputUl:simu5g_rateavg -nan
scalar SingleCell_Standalone.ue[0].cellularNic.mac macCellThroughputDl:simu5g_rateavg -nan
scalar SingleCell_Standalone.ue[0].cellularNic.mac rcvdD2DModeSwitchNotification:count 0
scalar SingleCell_Standalone.ue[0].cellularNic.mac sentPacketToLowerLayer:count 0
scalar SingleCell_Standalone.ue[0].cellularNic.mac sentPacketToLowerLayer:sum(packetBytes) 0
scalar SingleCell_Standalone.ue[0].cellularNic.mac sentPacketToUpperLayer:count 0
scalar SingleCell_Standalone.ue[0].cellularNic.mac sentPacketToUpperLayer:sum(packetBytes) 0
scalar SingleCell_Standalone.ue[0].cellularNic.mac receivedPacketFromLowerLayer:count 0
scalar SingleCell_Standalone.ue[0].cellularNic.mac receivedPacketFromLowerLayer:sum(packetBytes) 0
scalar SingleCell_Standalone.ue[0].cellularNic.mac receivedPacketFromUpperLayer:count 0
scalar SingleCell_Standalone.ue[0].cellularNic.mac receivedPacketFromUpperLayer:sum(packetBytes) 0
scalar SingleCell_Standalone.ue[0].cellularNic.mac macBufferOverFlowD2D:mean -nan
scalar SingleCell_Standalone.ue[0].cellularNic.mac macBufferOverFlowUl:mean -nan
scalar SingleCell_Standalone.ue[0].cellularNic.mac macBufferOverFlowDl:mean -nan
scalar SingleCell_Standalone.ue[0].cellularNic.phy distance:mean -nan
scalar SingleCell_Standalone.ue[0].cellularNic.phy averageCqiD2D:mean -nan
scalar SingleCell_Standalone.ue[0].cellularNic.phy averageCqiUl:mean -nan
scalar SingleCell_Standalone.ue[0].cellularNic.phy averageCqiUl:count 0
scalar SingleCell_Standalone.ue[0].cellularNic.phy averageCqiDl:mean -nan
scalar SingleCell_Standalone.ue[0].cellularNic.phy averageCqiDl:count 0
scalar SingleCell_Standalone.ue[0].cellularNic.channelModel[0] measuredSinrUl:mean -nan
scalar SingleCell_Standalone.ue[0].cellularNic.channelModel[0] measuredSinrDl:mean -nan
scalar SingleCell_Standalone.ue[0].cellularNic.channelModel[0] rcvdSinrD2D:mean -nan
scalar SingleCell_Standalone.ue[0].cellularNic.channelModel[0] rcvdSinrUl:mean -nan
scalar SingleCell_Standalone.ue[0].cellularNic.channelModel[0] rcvdSinrDl:mean -nan
scalar SingleCell_Standalone.ue[0].cellularNic.nrRlc.tm rlcPacketLossUl:mean -nan
scalar SingleCell_Standalone.ue[0].cellularNic.nrRlc.tm rlcPacketLossUl:sum 0
scalar SingleCell_Standalone.ue[0].cellularNic.nrRlc.tm rlcPacketLossDl:mean -nan
scalar SingleCell_Standalone.ue[0].cellularNic.nrRlc.tm rlcPacketLossDl:sum 0
scalar SingleCell_Standalone.ue[0].cellularNic.nrRlc.tm sentPacketToLowerLayer:count 0
scalar SingleCell_Standalone.ue[0].cellularNic.nrRlc.tm sentPacketToLowerLayer:sum(packetBytes) 0
scalar SingleCell_Standalone.ue[0].cellularNic.nrRlc.tm sentPacketToUpperLayer:count 0
scalar SingleCell_Standalone.ue[0].cellularNic.nrRlc.tm sentPacketToUpperLayer:sum(packetBytes) 0
scalar SingleCell_Standalone.ue[0].cellularNic.nrRlc.tm receivedPacketFromLowerLayer:count 0
scalar SingleCell_Standalone.ue[0].cellularNic.nrRlc.tm receivedPacketFromLowerLayer:sum(packetBytes) 0
scalar SingleCell_Standalone.ue[0].cellularNic.nrRlc.tm receivedPacketFromUpperLayer:count 0
scalar SingleCell_Standalone.ue[0].cellularNic.nrRlc.tm receivedPacketFromUpperLayer:sum(packetBytes) 0
scalar SingleCell_Standalone.ue[0].cellularNic.nrRlc.um rlcCellThroughputD2D:simu5g_rateavg -nan
scalar SingleCell_Standalone.ue[0].cellularNic.nrRlc.um rlcPduThroughputD2D:simu5g_rateavg -nan
scalar SingleCell_Standalone.ue[0].cellularNic.nrRlc.um rlcPduDelayD2D:mean -nan
scalar SingleCell_Standalone.ue[0].cellularNic.nrRlc.um rlcThroughputD2D:simu5g_rateavg -nan
scalar SingleCell_Standalone.ue[0].cellularNic.nrRlc.um rlcDelayD2D:mean -nan
scalar SingleCell_Standalone.ue[0].cellularNic.nrRlc.um rlcCellThroughputUl:simu5g_rateavg -nan
scalar SingleCell_Standalone.ue[0].cellularNic.nrRlc.um rlcCellThroughputDl:simu5g_rateavg -nan
scalar SingleCell_Standalone.ue[0].cellularNic.nrRlc.um rlcPduThroughputUl:simu5g_rateavg 0
scalar SingleCell_Standalone.ue[0].cellularNic.nrRlc.um rlcPduThroughputDl:simu5g_rateavg -nan
scalar SingleCell_Standalone.ue[0].cellularNic.nrRlc.um rlcPduDelayUl:mean 0.0040000000000000027
scalar SingleCell_Standalone.ue[0].cellularNic.nrRlc.um rlcPduDelayDl:mean -nan
scalar SingleCell_Standalone.ue[0].cellularNic.nrRlc.um rlcThroughputUl:simu5g_rateavg 2531.8888181822899
scalar SingleCell_Standalone.ue[0].cellularNic.nrRlc.um rlcThroughputDl:simu5g_rateavg -nan
scalar SingleCell_Standalone.ue[0].cellularNic.nrRlc.um rlcDelayUl:mean 0.015111187836201197
scalar SingleCell_Standalone.ue[0].cellularNic.nrRlc.um rlcDelayDl:mean -nan
scalar SingleCell_Standalone.ue[0].cellularNic.nrRlc.um sentPacketToLowerLayer:count 598
scalar SingleCell_Standalone.ue[0].cellularNic.nrRlc.um sentPacketToLowerLayer:sum(packetBytes) 46805
scalar SingleCell_Standalone.ue[0].cellularNic.nrRlc.um sentPacketToUpperLayer:count 0
scalar SingleCell_Standalone.ue[0].cellularNic.nrRlc.um sentPacketToUpperLayer:sum(packetBytes) 0
scalar SingleCell_Standalone.ue[0].cellularNic.nrRlc.um receivedPacketFromLowerLayer:count 0
scalar SingleCell_Standalone.ue[0].cellularNic.nrRlc.um receivedPacketFromLowerLayer:sum(packetBytes) 0
scalar SingleCell_Standalone.ue[0].cellularNic.nrRlc.um receivedPacketFromUpperLayer:count 662
scalar SingleCell_Standalone.ue[0].cellularNic.nrRlc.um receivedPacketFromUpperLayer:sum(packetBytes) 45678
scalar SingleCell_Standalone.ue[0].cellularNic.nrRlc.am rlcPacketLossTotal:mean -nan
scalar SingleCell_Standalone.ue[0].cellularNic.nrRlc.am rlcCellThroughputUl:simu5g_rateavg -nan
scalar SingleCell_Standalone.ue[0].cellularNic.nrRlc.am rlcCellThroughputDl:simu5g_rateavg -nan
scalar SingleCell_Standalone.ue[0].cellularNic.nrRlc.am rlcPduThroughputUl:simu5g_rateavg -nan
scalar SingleCell_Standalone.ue[0].cellularNic.nrRlc.am rlcPduThroughputDl:simu5g_rateavg -nan
scalar SingleCell_Standalone.ue[0].cellularNic.nrRlc.am rlcPduDelayUl:mean -nan
scalar SingleCell_Standalone.ue[0].cellularNic.nrRlc.am rlcPduDelayDl:mean -nan
scalar SingleCell_Standalone.ue[0].cellularNic.nrRlc.am rlcThroughputUl:simu5g_rateavg -nan
scalar SingleCell_Standalone.ue[0].cellularNic.nrRlc.am rlcThroughputDl:simu5g_rateavg -nan
scalar SingleCell_Standalone.ue[0].cellularNic.nrRlc.am rlcDelayUl:mean -nan
scalar SingleCell_Standalone.ue[0].cellularNic.nrRlc.am rlcDelayDl:mean -nan
scalar SingleCell_Standalone.ue[0].cellularNic.nrRlc.am rlcPduPacketLossUl:mean -nan
scalar SingleCell_Standalone.ue[0].cellularNic.nrRlc.am rlcPduPacketLossDl:mean -nan
scalar SingleCell_Standalone.ue[0].cellularNic.nrRlc.am rlcPacketLossUl:mean -nan
scalar SingleCell_Standalone.ue[0].cellularNic.nrRlc.am rlcPacketLossDl:mean -nan
scalar SingleCell_Standalone.ue[0].cellularNic.nrRlc.am rlcCellPacketLossUl:mean -nan
scalar SingleCell_Standalone.ue[0].cellularNic.nrRlc.am rlcCellPacketLossDl:mean -nan
scalar SingleCell_Standalone.ue[0].cellularNic.nrMac harqErrorRate_4th_D2D:mean -nan
scalar SingleCell_Standalone.ue[0].cellularNic.nrMac harqErrorRate_3rd_D2D:mean -nan
scalar SingleCell_Standalone.ue[0].cellularNic.nrMac harqErrorRate_2nd_D2D:mean -nan
scalar SingleCell_Standalone.ue[0].cellularNic.nrMac harqErrorRate_1st_D2D:mean -nan
scalar SingleCell_Standalone.ue[0].cellularNic.nrMac harqErrorRateD2D:mean -nan
scalar SingleCell_Standalone.ue[0].cellularNic.nrMac macPacketLossD2D:mean -nan
scalar SingleCell_Standalone.ue[0].cellularNic.nrMac macDelayD2D:mean -nan
scalar SingleCell_Standalone.ue[0].cellularNic.nrMac macThroughputD2D:simu5g_rateavg -nan
scalar SingleCell_Standalone.ue[0].cellularNic.nrMac harqTxAttemptsUl:mean 1
scalar SingleCell_Standalone.ue[0].cellularNic.nrMac harqTxAttemptsDl:mean -nan
scalar SingleCell_Standalone.ue[0].cellularNic.nrMac harqErrorRate_4th_Ul:mean -nan
scalar SingleCell_Standalone.ue[0].cellularNic.nrMac harqErrorRate_4th_Dl:mean -nan
scalar SingleCell_Standalone.ue[0].cellularNic.nrMac harqErrorRate_3rd_Ul:mean -nan
scalar SingleCell_Standalone.ue[0].cellularNic.nrMac harqErrorRate_3rd_Dl:mean -nan
scalar SingleCell_Standalone.ue[0].cellularNic.nrMac harqErrorRate_2nd_Ul:mean -nan
scalar SingleCell_Standalone.ue[0].cellularNic.nrMac harqErrorRate_2nd_Dl:mean -nan
scalar SingleCell_Standalone.ue[0].cellularNic.nrMac harqErrorRate_1st_Ul:mean 0
scalar SingleCell_Standalone.ue[0].cellularNic.nrMac harqErrorRate_1st_Dl:mean -nan
scalar SingleCell_Standalone.ue[0].cellularNic.nrMac harqErrorRateUl:mean 0
scalar SingleCell_Standalone.ue[0].cellularNic.nrMac harqErrorRateDl:mean -nan
scalar SingleCell_Standalone.ue[0].cellularNic.nrMac macCellPacketLossUl:mean -nan
scalar SingleCell_Standalone.ue[0].cellularNic.nrMac macCellPacketLossDl:mean -nan
scalar SingleCell_Standalone.ue[0].cellularNic.nrMac macPacketLossUl:mean 0
scalar SingleCell_Standalone.ue[0].cellularNic.nrMac macPacketLossDl:mean -nan
scalar SingleCell_Standalone.ue[0].cellularNic.nrMac macThroughputUl:simu5g_rateavg 2666.8797953726066
scalar SingleCell_Standalone.ue[0].cellularNic.nrMac macThroughputDl:simu5g_rateavg -nan
scalar SingleCell_Standalone.ue[0].cellularNic.nrMac macDelayUl:mean 0.0040000000000000027
scalar SingleCell_Standalone.ue[0].cellularNic.nrMac macDelayDl:mean -nan
scalar SingleCell_Standalone.ue[0].cellularNic.nrMac macCellThroughputUl:simu5g_rateavg -nan
scalar SingleCell_Standalone.ue[0].cellularNic.nrMac macCellThroughputDl:simu5g_rateavg -nan
scalar SingleCell_Standalone.ue[0].cellularNic.nrMac rcvdD2DModeSwitchNotification:count 0
scalar SingleCell_Standalone.ue[0].cellularNic.nrMac sentPacketToLowerLayer:count 1197
scalar SingleCell_Standalone.ue[0].cellularNic.nrMac sentPacketToLowerLayer:sum(packetBytes) 48600
scalar SingleCell_Standalone.ue[0].cellularNic.nrMac sentPacketToUpperLayer:count 598
scalar SingleCell_Standalone.ue[0].cellularNic.nrMac sentPacketToUpperLayer:sum(packetBytes) 598
scalar SingleCell_Standalone.ue[0].cellularNic.nrMac receivedPacketFromLowerLayer:count 1794
scalar SingleCell_Standalone.ue[0].cellularNic.nrMac receivedPacketFromLowerLayer:sum(packetBytes) 1794
scalar SingleCell_Standalone.ue[0].cellularNic.nrMac receivedPacketFromUpperLayer:count 1260
scalar SingleCell_Standalone.ue[0].cellularNic.nrMac receivedPacketFromUpperLayer:sum(packetBytes) 92483
scalar SingleCell_Standalone.ue[0].cellularNic.nrMac macBufferOverFlowD2D:mean -nan
scalar SingleCell_Standalone.ue[0].cellularNic.nrMac macBufferOverFlowUl:mean -nan
scalar SingleCell_Standalone.ue[0].cellularNic.nrMac macBufferOverFlowDl:mean -nan
scalar SingleCell_Standalone.ue[0].cellularNic.nrPhy distance:mean -nan
scalar SingleCell_Standalone.ue[0].cellularNic.nrPhy averageCqiD2D:mean -nan
scalar SingleCell_Standalone.ue[0].cellularNic.nrPhy averageCqiUl:mean 15
scalar SingleCell_Standalone.ue[0].cellularNic.nrPhy averageCqiUl:count 598
scalar SingleCell_Standalone.ue[0].cellularNic.nrPhy averageCqiDl:mean -nan
scalar SingleCell_Standalone.ue[0].cellularNic.nrPhy averageCqiDl:count 0
scalar SingleCell_Standalone.ue[0].cellularNic.nrChannelModel[0] measuredSinrUl:mean 50.067495889505196
scalar SingleCell_Standalone.ue[0].cellularNic.nrChannelModel[0] measuredSinrDl:mean 74.154434582531323
scalar SingleCell_Standalone.ue[0].cellularNic.nrChannelModel[0] rcvdSinrD2D:mean -nan
scalar SingleCell_Standalone.ue[0].cellularNic.nrChannelModel[0] rcvdSinrUl:mean 55.161179061665493
scalar SingleCell_Standalone.ue[0].cellularNic.nrChannelModel[0] rcvdSinrDl:mean -nan
scalar SingleCell_Standalone.ue[0].cellularNic packetDropInterfaceDown:count 0
scalar SingleCell_Standalone.ue[0].cellularNic packetDropInterfaceDown:sum(packetBytes) 0
scalar SingleCell_Standalone.ue[0].cellularNic packetDropNoCarrier:count 0
scalar SingleCell_Standalone.ue[0].cellularNic packetDropNoCarrier:sum(packetBytes) 0
scalar SingleCell_Standalone.ue[0].encap pauseSent:count 0
scalar SingleCell_Standalone.ue[0].encap pauseSent:sum 0
scalar SingleCell_Standalone.ue[0].encap decapPk:count 0
scalar SingleCell_Standalone.ue[0].encap decapPk:sum(packetBytes) 0
scalar SingleCell_Standalone.ue[0].encap encapPk:count 0
scalar SingleCell_Standalone.ue[0].encap encapPk:sum(packetBytes) 0
scalar SingleCell_Standalone.ue[0].ipv4.ip packetDropAddressResolutionFailed:count 0
scalar SingleCell_Standalone.ue[0].ipv4.ip packetDropAddressResolutionFailed:sum(packetBytes) 0
scalar SingleCell_Standalone.ue[0].ipv4.ip packetDropHopLimitReached:count 0
scalar SingleCell_Standalone.ue[0].ipv4.ip packetDropHopLimitReached:sum(packetBytes) 0
scalar SingleCell_Standalone.ue[0].ipv4.ip packetDropForwardingDisabled:count 0
scalar SingleCell_Standalone.ue[0].ipv4.ip packetDropForwardingDisabled:sum(packetBytes) 0
scalar SingleCell_Standalone.ue[0].ipv4.ip packetDropNoInterfaceFound:count 0
scalar SingleCell_Standalone.ue[0].ipv4.ip packetDropNoInterfaceFound:sum(packetBytes) 0
scalar SingleCell_Standalone.ue[0].ipv4.ip packetDropNoRouteFound:count 0
scalar SingleCell_Standalone.ue[0].ipv4.ip packetDropNoRouteFound:sum(packetBytes) 0
scalar SingleCell_Standalone.ue[0].ipv4.ip packetDropUndefined:count 0
scalar SingleCell_Standalone.ue[0].ipv4.ip packetDropUndefined:sum(packetBytes) 0
scalar SingleCell_Standalone.ue[0].ipv4.arp arpResolutionFailed:count 0
scalar SingleCell_Standalone.ue[0].ipv4.arp arpResolutionCompleted:count 0
scalar SingleCell_Standalone.ue[0].ipv4.arp arpResolutionInitiated:count 0
scalar SingleCell_Standalone.ue[0].ipv4.arp arpReplySent:count 0
scalar SingleCell_Standalone.ue[0].ipv4.arp arpReplySent:sum(packetBytes) 0
scalar SingleCell_Standalone.ue[0].ipv4.arp arpRequestSent:count 0
scalar SingleCell_Standalone.ue[0].ipv4.arp arpRequestSent:sum(packetBytes) 0
scalar SingleCell_Standalone.ue[0].udp packetReceived:count 0
scalar SingleCell_Standalone.ue[0].udp packetReceived:sum(packetBytes) 0
scalar SingleCell_Standalone.ue[0].udp packetSent:count 662
scalar SingleCell_Standalone.ue[0].udp packetSent:sum(packetBytes) 31776
scalar SingleCell_Standalone.ue[0].udp passedUpPk:count 0
scalar SingleCell_Standalone.ue[0].udp droppedPkWrongPort:count 0
scalar SingleCell_Standalone.ue[0].udp droppedPkBadChecksum:count 0
scalar SingleCell_Standalone.ue[0].app[0] voipGeneratedThroughput:simu5g_rateavg 1477.4440964872722
scalar SingleCell_Standalone.server.ppp[0].queue queueingTime:histogram:count 0
scalar SingleCell_Standalone.server.ppp[0].queue queueingTime:histogram:sumweights 0
scalar SingleCell_Standalone.server.ppp[0].queue queueingTime:histogram:mean -nan
scalar SingleCell_Standalone.server.ppp[0].queue queueingTime:histogram:stddev nan
scalar SingleCell_Standalone.server.ppp[0].queue queueingTime:histogram:min nan
scalar SingleCell_Standalone.server.ppp[0].queue queueingTime:histogram:max nan
scalar SingleCell_Standalone.server.ppp[0].queue queueingTime:histogram:numbins 1
scalar SingleCell_Standalone.server.ppp[0].queue queueingTime:histogram:rangemin 0
scalar SingleCell_Standalone.server.ppp[0].queue queueingTime:histogram:rangemax 1
scalar SingleCell_Standalone.server.ppp[0].queue queueingTime:histogram:underflows 0
scalar SingleCell_Standalone.server.ppp[0].queue queueingTime:histogram:overflows 0
scalar SingleCell_Standalone.server.ppp[0].queue outgoingPacketLengths:histogram:count 0
scalar SingleCell_Standalone.server.ppp[0].queue outgoingPacketLengths:histogram:sumweights 0
scalar SingleCell_Standalone.server.ppp[0].queue outgoingPacketLengths:histogram:mean -nan
scalar SingleCell_Standalone.server.ppp[0].queue outgoingPacketLengths:histogram:stddev nan
scalar SingleCell_Standalone.server.ppp[0].queue outgoingPacketLengths:histogram:min nan
scalar SingleCell_Standalone.server.ppp[0].queue outgoingPacketLengths:histogram:max nan
scalar SingleCell_Standalone.server.ppp[0].queue outgoingPacketLengths:histogram:numbins 1
scalar SingleCell_Standalone.server.ppp[0].queue outgoingPacketLengths:histogram:rangemin 0
scalar SingleCell_Standalone.server.ppp[0].queue outgoingPacketLengths:histogram:rangemax 1
scalar SingleCell_Standalone.server.ppp[0].queue outgoingPacketLengths:histogram:underflows 0
scalar SingleCell_Standalone.server.ppp[0].queue outgoingPacketLengths:histogram:overflows 0
scalar SingleCell_Standalone.server.ppp[0].queue flowQueueingTime:histogram:count 0
scalar SingleCell_Standalone.server.ppp[0].queue flowQueueingTime:histogram:sumweights 0
scalar SingleCell_Standalone.server.ppp[0].queue flowQueueingTime:histogram:mean -nan
scalar SingleCell_Standalone.server.ppp[0].queue flowQueueingTime:histogram:stddev nan
scalar SingleCell_Standalone.server.ppp[0].queue flowQueueingTime:histogram:min nan
scalar SingleCell_Standalone.server.ppp[0].queue flowQueueingTime:histogram:max nan
scalar SingleCell_Standalone.server.ppp[0].queue flowQueueingTime:histogram:numbins 1
scalar SingleCell_Standalone.server.ppp[0].queue flowQueueingTime:histogram:rangemin 0
scalar SingleCell_Standalone.server.ppp[0].queue flowQueueingTime:histogram:rangemax 1
scalar SingleCell_Standalone.server.ppp[0].queue flowQueueingTime:histogram:underflows 0
scalar SingleCell_Standalone.server.ppp[0].queue flowQueueingTime:histogram:overflows 0
scalar SingleCell_Standalone.server.ppp[0].queue incomingPacketLengths:histogram:count 0
scalar SingleCell_Standalone.server.ppp[0].queue incomingPacketLengths:histogram:sumweights 0
scalar SingleCell_Standalone.server.ppp[0].queue incomingPacketLengths:histogram:mean -nan
scalar SingleCell_Standalone.server.ppp[0].queue incomingPacketLengths:histogram:stddev nan
scalar SingleCell_Standalone.server.ppp[0].queue incomingPacketLengths:histogram:min nan
scalar SingleCell_Standalone.server.ppp[0].queue incomingPacketLengths:histogram:max nan
scalar SingleCell_Standalone.server.ppp[0].queue incomingPacketLengths:histogram:numbins 1
scalar SingleCell_Standalone.server.ppp[0].queue incomingPacketLengths:histogram:rangemin 0
scalar SingleCell_Standalone.server.ppp[0].queue incomingPacketLengths:histogram:rangemax 1
scalar SingleCell_Standalone.server.ppp[0].queue incomingPacketLengths:histogram:underflows 0
scalar SingleCell_Standalone.server.ppp[0].queue incomingPacketLengths:histogram:overflows 0
scalar SingleCell_Standalone.router.ppp[0].queue queueingTime:histogram:count 661
scalar SingleCell_Standalone.router.ppp[0].queue queueingTime:histogram:sumweights 661
scalar SingleCell_Standalone.router.ppp[0].queue queueingTime:histogram:mean 0
scalar SingleCell_Standalone.router.ppp[0].queue queueingTime:histogram:stddev 0
scalar SingleCell_Standalone.router.ppp[0].queue queueingTime:histogram:min 0
scalar SingleCell_Standalone.router.ppp[0].queue queueingTime:histogram:max 0
scalar SingleCell_Standalone.router.ppp[0].queue queueingTime:histogram:numbins 50
scalar SingleCell_Standalone.router.ppp[0].queue queueingTime:histogram:rangemin -0.5
scalar SingleCell_Standalone.router.ppp[0].queue queueingTime:histogram:rangemax 0.5
scalar SingleCell_Standalone.router.ppp[0].queue queueingTime:histogram:underflows 0
scalar SingleCell_Standalone.router.ppp[0].queue queueingTime:histogram:overflows 0
scalar SingleCell_Standalone.router.ppp[0].queue outgoingPacketLengths:histogram:count 661
scalar SingleCell_Standalone.router.ppp[0].queue outgoingPacketLengths:histogram:sumweights 661
scalar SingleCell_Standalone.router.ppp[0].queue outgoingPacketLengths:histogram:mean 544
scalar SingleCell_Standalone.router.ppp[0].queue outgoingPacketLengths:histogram:stddev 0
scalar SingleCell_Standalone.router.ppp[0].queue outgoingPacketLengths:histogram:min 544
scalar SingleCell_Standalone.router.ppp[0].queue outgoingPacketLengths:histogram:max 544
scalar SingleCell_Standalone.router.ppp[0].queue outgoingPacketLengths:histogram:numbins 2
scalar SingleCell_Standalone.router.ppp[0].queue outgoingPacketLengths:histogram:rangemin 543
scalar SingleCell_Standalone.router.ppp[0].queue outgoingPacketLengths:histogram:rangemax 545
scalar SingleCell_Standalone.router.ppp[0].queue outgoingPacketLengths:histogram:underflows 0
scalar SingleCell_Standalone.router.ppp[0].queue outgoingPacketLengths:histogram:overflows 0
scalar SingleCell_Standalone.router.ppp[0].queue flowQueueingTime:histogram:count 0
scalar SingleCell_Standalone.router.ppp[0].queue flowQueueingTime:histogram:sumweights 0
scalar SingleCell_Standalone.router.ppp[0].queue flowQueueingTime:histogram:mean -nan
scalar SingleCell_Standalone.router.ppp[0].queue flowQueueingTime:histogram:stddev nan
scalar SingleCell_Standalone.router.ppp[0].queue flowQueueingTime:histogram:min nan
scalar SingleCell_Standalone.router.ppp[0].queue flowQueueingTime:histogram:max nan
scalar SingleCell_Standalone.router.ppp[0].queue flowQueueingTime:histogram:numbins 1
scalar SingleCell_Standalone.router.ppp[0].queue flowQueueingTime:histogram:rangemin 0
scalar SingleCell_Standalone.router.ppp[0].queue flowQueueingTime:histogram:rangemax 1
scalar SingleCell_Standalone.router.ppp[0].queue flowQueueingTime:histogram:underflows 0
scalar SingleCell_Standalone.router.ppp[0].queue flowQueueingTime:histogram:overflows 0
scalar SingleCell_Standalone.router.ppp[0].queue incomingPacketLengths:histogram:count 661
scalar SingleCell_Standalone.router.ppp[0].queue incomingPacketLengths:histogram:sumweights 661
scalar SingleCell_Standalone.router.ppp[0].queue incomingPacketLengths:histogram:mean 544
scalar SingleCell_Standalone.router.ppp[0].queue incomingPacketLengths:histogram:stddev 0
scalar SingleCell_Standalone.router.ppp[0].queue incomingPacketLengths:histogram:min 544
scalar SingleCell_Standalone.router.ppp[0].queue incomingPacketLengths:histogram:max 544
scalar SingleCell_Standalone.router.ppp[0].queue incomingPacketLengths:histogram:numbins 2
scalar SingleCell_Standalone.router.ppp[0].queue incomingPacketLengths:histogram:rangemin 543
scalar SingleCell_Standalone.router.ppp[0].queue incomingPacketLengths:histogram:rangemax 545
scalar SingleCell_Standalone.router.ppp[0].queue incomingPacketLengths:histogram:underflows 0
scalar SingleCell_Standalone.router.ppp[0].queue incomingPacketLengths:histogram:overflows 0
scalar SingleCell_Standalone.router.ppp[1].queue queueingTime:histogram:count 0
scalar SingleCell_Standalone.router.ppp[1].queue queueingTime:histogram:sumweights 0
scalar SingleCell_Standalone.router.ppp[1].queue queueingTime:histogram:mean -nan
scalar SingleCell_Standalone.router.ppp[1].queue queueingTime:histogram:stddev nan
scalar SingleCell_Standalone.router.ppp[1].queue queueingTime:histogram:min nan
scalar SingleCell_Standalone.router.ppp[1].queue queueingTime:histogram:max nan
scalar SingleCell_Standalone.router.ppp[1].queue queueingTime:histogram:numbins 1
scalar SingleCell_Standalone.router.ppp[1].queue queueingTime:histogram:rangemin 0
scalar SingleCell_Standalone.router.ppp[1].queue queueingTime:histogram:rangemax 1
scalar SingleCell_Standalone.router.ppp[1].queue queueingTime:histogram:underflows 0
scalar SingleCell_Standalone.router.ppp[1].queue queueingTime:histogram:overflows 0
scalar SingleCell_Standalone.router.ppp[1].queue outgoingPacketLengths:histogram:count 0
scalar SingleCell_Standalone.router.ppp[1].queue outgoingPacketLengths:histogram:sumweights 0
scalar SingleCell_Standalone.router.ppp[1].queue outgoingPacketLengths:histogram:mean -nan
scalar SingleCell_Standalone.router.ppp[1].queue outgoingPacketLengths:histogram:stddev nan
scalar SingleCell_Standalone.router.ppp[1].queue outgoingPacketLengths:histogram:min nan
scalar SingleCell_Standalone.router.ppp[1].queue outgoingPacketLengths:histogram:max nan
scalar SingleCell_Standalone.router.ppp[1].queue outgoingPacketLengths:histogram:numbins 1
scalar SingleCell_Standalone.router.ppp[1].queue outgoingPacketLengths:histogram:rangemin 0
scalar SingleCell_Standalone.router.ppp[1].queue outgoingPacketLengths:histogram:rangemax 1
scalar SingleCell_Standalone.router.ppp[1].queue outgoingPacketLengths:histogram:underflows 0
scalar SingleCell_Standalone.router.ppp[1].queue outgoingPacketLengths:histogram:overflows 0
scalar SingleCell_Standalone.router.ppp[1].queue flowQueueingTime:histogram:count 0
scalar SingleCell_Standalone.router.ppp[1].queue flowQueueingTime:histogram:sumweights 0
scalar SingleCell_Standalone.router.ppp[1].queue flowQueueingTime:histogram:mean -nan
scalar SingleCell_Standalone.router.ppp[1].queue flowQueueingTime:histogram:stddev nan
scalar SingleCell_Standalone.router.ppp[1].queue flowQueueingTime:histogram:min nan
scalar SingleCell_Standalone.router.ppp[1].queue flowQueueingTime:histogram:max nan
scalar SingleCell_Standalone.router.ppp[1].queue flowQueueingTime:histogram:numbins 1
scalar SingleCell_Standalone.router.ppp[1].queue flowQueueingTime:histogram:rangemin 0
scalar SingleCell_Standalone.router.ppp[1].queue flowQueueingTime:histogram:rangemax 1
scalar SingleCell_Standalone.router.ppp[1].queue flowQueueingTime:histogram:underflows 0
scalar SingleCell_Standalone.router.ppp[1].queue flowQueueingTime:histogram:overflows 0
scalar SingleCell_Standalone.router.ppp[1].queue incomingPacketLengths:histogram:count 0
scalar SingleCell_Standalone.router.ppp[1].queue incomingPacketLengths:histogram:sumweights 0
scalar SingleCell_Standalone.router.ppp[1].queue incomingPacketLengths:histogram:mean -nan
scalar SingleCell_Standalone.router.ppp[1].queue incomingPacketLengths:histogram:stddev nan
scalar SingleCell_Standalone.router.ppp[1].queue incomingPacketLengths:histogram:min nan
scalar SingleCell_Standalone.router.ppp[1].queue incomingPacketLengths:histogram:max nan
scalar SingleCell_Standalone.router.ppp[1].queue incomingPacketLengths:histogram:numbins 1
scalar SingleCell_Standalone.router.ppp[1].queue incomingPacketLengths:histogram:rangemin 0
scalar SingleCell_Standalone.router.ppp[1].queue incomingPacketLengths:histogram:rangemax 1
scalar SingleCell_Standalone.router.ppp[1].queue incomingPacketLengths:histogram:underflows 0
scalar SingleCell_Standalone.router.ppp[1].queue incomingPacketLengths:histogram:overflows 0
scalar SingleCell_Standalone.upf.ppp[0].queue queueingTime:histogram:count 0
scalar SingleCell_Standalone.upf.ppp[0].queue queueingTime:histogram:sumweights 0
scalar SingleCell_Standalone.upf.ppp[0].queue queueingTime:histogram:mean -nan
scalar SingleCell_Standalone.upf.ppp[0].queue queueingTime:histogram:stddev nan
scalar SingleCell_Standalone.upf.ppp[0].queue queueingTime:histogram:min nan
scalar SingleCell_Standalone.upf.ppp[0].queue queueingTime:histogram:max nan
scalar SingleCell_Standalone.upf.ppp[0].queue queueingTime:histogram:numbins 1
scalar SingleCell_Standalone.upf.ppp[0].queue queueingTime:histogram:rangemin 0
scalar SingleCell_Standalone.upf.ppp[0].queue queueingTime:histogram:rangemax 1
scalar SingleCell_Standalone.upf.ppp[0].queue queueingTime:histogram:underflows 0
scalar SingleCell_Standalone.upf.ppp[0].queue queueingTime:histogram:overflows 0
scalar SingleCell_Standalone.upf.ppp[0].queue outgoingPacketLengths:histogram:count 0
[...]
scalar SingleCell_Standalone.ue[0].cellularNic.nrPhy averageCqiD2D:vector:starttime nan
scalar SingleCell_Standalone.ue[0].cellularNic.nrPhy averageCqiD2D:vector:endtime nan
scalar SingleCell_Standalone.ue[0].cellularNic.nrChannelModel[0] rcvdSinrDl:vector:count 0
scalar SingleCell_Standalone.ue[0].cellularNic.nrChannelModel[0] rcvdSinrDl:vector:sum 0
scalar SingleCell_Standalone.ue[0].cellularNic.nrChannelModel[0] rcvdSinrDl:vector:sumweights 0
scalar SingleCell_Standalone.ue[0].cellularNic.nrChannelModel[0] rcvdSinrDl:vector:mean -nan
scalar SingleCell_Standalone.ue[0].cellularNic.nrChannelModel[0] rcvdSinrDl:vector:stddev nan
scalar SingleCell_Standalone.ue[0].cellularNic.nrChannelModel[0] rcvdSinrDl:vector:min inf
scalar SingleCell_Standalone.ue[0].cellularNic.nrChannelModel[0] rcvdSinrDl:vector:max -inf
scalar SingleCell_Standalone.ue[0].cellularNic.nrChannelModel[0] rcvdSinrDl:vector:starttime nan
scalar SingleCell_Standalone.ue[0].cellularNic.nrChannelModel[0] rcvdSinrDl:vector:endtime nan
scalar SingleCell_Standalone.ue[0].cellularNic.nrChannelModel[0] rcvdSinrUl:vector:count 598
scalar SingleCell_Standalone.ue[0].cellularNic.nrChannelModel[0] rcvdSinrUl:vector:sum 32986.385078875966
scalar SingleCell_Standalone.ue[0].cellularNic.nrChannelModel[0] rcvdSinrUl:vector:sumweights 598
scalar SingleCell_Standalone.ue[0].cellularNic.nrChannelModel[0] rcvdSinrUl:vector:mean 55.161179061665493
scalar SingleCell_Standalone.ue[0].cellularNic.nrChannelModel[0] rcvdSinrUl:vector:stddev 0
scalar SingleCell_Standalone.ue[0].cellularNic.nrChannelModel[0] rcvdSinrUl:vector:min 55.161179061665131
scalar SingleCell_Standalone.ue[0].cellularNic.nrChannelModel[0] rcvdSinrUl:vector:max 55.161179061665131
scalar SingleCell_Standalone.ue[0].cellularNic.nrChannelModel[0] rcvdSinrUl:vector:starttime 0.014999999999999999
scalar SingleCell_Standalone.ue[0].cellularNic.nrChannelModel[0] rcvdSinrUl:vector:endtime 19.981999999999999
scalar SingleCell_Standalone.ue[0].cellularNic.nrChannelModel[0] rcvdSinrD2D:vector:count 0
scalar SingleCell_Standalone.ue[0].cellularNic.nrChannelModel[0] rcvdSinrD2D:vector:sum 0
scalar SingleCell_Standalone.ue[0].cellularNic.nrChannelModel[0] rcvdSinrD2D:vector:sumweights 0
scalar SingleCell_Standalone.ue[0].cellularNic.nrChannelModel[0] rcvdSinrD2D:vector:mean -nan
scalar SingleCell_Standalone.ue[0].cellularNic.nrChannelModel[0] rcvdSinrD2D:vector:stddev nan
scalar SingleCell_Standalone.ue[0].cellularNic.nrChannelModel[0] rcvdSinrD2D:vector:min inf
scalar SingleCell_Standalone.ue[0].cellularNic.nrChannelModel[0] rcvdSinrD2D:vector:max -inf
scalar SingleCell_Standalone.ue[0].cellularNic.nrChannelModel[0] rcvdSinrD2D:vector:starttime nan
scalar SingleCell_Standalone.ue[0].cellularNic.nrChannelModel[0] rcvdSinrD2D:vector:endtime nan
scalar SingleCell_Standalone.ue[0].cellularNic.nrChannelModel[0] measuredSinrDl:vector:count 3334
scalar SingleCell_Standalone.ue[0].cellularNic.nrChannelModel[0] measuredSinrDl:vector:sum 247230.88489815942
scalar SingleCell_Standalone.ue[0].cellularNic.nrChannelModel[0] measuredSinrDl:vector:sumweights 3334
scalar SingleCell_Standalone.ue[0].cellularNic.nrChannelModel[0] measuredSinrDl:vector:mean 74.154434582531323
scalar SingleCell_Standalone.ue[0].cellularNic.nrChannelModel[0] measuredSinrDl:vector:stddev 0
scalar SingleCell_Standalone.ue[0].cellularNic.nrChannelModel[0] measuredSinrDl:vector:min 74.154434582526264
scalar SingleCell_Standalone.ue[0].cellularNic.nrChannelModel[0] measuredSinrDl:vector:max 74.154434582526264
scalar SingleCell_Standalone.ue[0].cellularNic.nrChannelModel[0] measuredSinrDl:vector:starttime 0.002
scalar SingleCell_Standalone.ue[0].cellularNic.nrChannelModel[0] measuredSinrDl:vector:endtime 20
scalar SingleCell_Standalone.ue[0].cellularNic.nrChannelModel[0] measuredSinrUl:vector:count 3334
scalar SingleCell_Standalone.ue[0].cellularNic.nrChannelModel[0] measuredSinrUl:vector:sum 166925.03129561033
scalar SingleCell_Standalone.ue[0].cellularNic.nrChannelModel[0] measuredSinrUl:vector:sumweights 3334
scalar SingleCell_Standalone.ue[0].cellularNic.nrChannelModel[0] measuredSinrUl:vector:mean 50.067495889505196
scalar SingleCell_Standalone.ue[0].cellularNic.nrChannelModel[0] measuredSinrUl:vector:stddev 0
scalar SingleCell_Standalone.ue[0].cellularNic.nrChannelModel[0] measuredSinrUl:vector:min 50.067495889505643
scalar SingleCell_Standalone.ue[0].cellularNic.nrChannelModel[0] measuredSinrUl:vector:max 50.067495889505643
scalar SingleCell_Standalone.ue[0].cellularNic.nrChannelModel[0] measuredSinrUl:vector:starttime 0.002
scalar SingleCell_Standalone.ue[0].cellularNic.nrChannelModel[0] measuredSinrUl:vector:endtime 20
scalar SingleCell_Standalone.ue[0].cellularNic packetDropInterfaceDown:vector(packetBytes):count 0
scalar SingleCell_Standalone.ue[0].cellularNic packetDropInterfaceDown:vector(packetBytes):sum 0
scalar SingleCell_Standalone.ue[0].cellularNic packetDropInterfaceDown:vector(packetBytes):sumweights 0
scalar SingleCell_Standalone.ue[0].cellularNic packetDropInterfaceDown:vector(packetBytes):mean -nan
scalar SingleCell_Standalone.ue[0].cellularNic packetDropInterfaceDown:vector(packetBytes):stddev nan
scalar SingleCell_Standalone.ue[0].cellularNic packetDropInterfaceDown:vector(packetBytes):min inf
scalar SingleCell_Standalone.ue[0].cellularNic packetDropInterfaceDown:vector(packetBytes):max -inf
scalar SingleCell_Standalone.ue[0].cellularNic packetDropInterfaceDown:vector(packetBytes):starttime nan
scalar SingleCell_Standalone.ue[0].cellularNic packetDropInterfaceDown:vector(packetBytes):endtime nan
scalar SingleCell_Standalone.ue[0].cellularNic packetDropNoCarrier:vector(packetBytes):count 0
scalar SingleCell_Standalone.ue[0].cellularNic packetDropNoCarrier:vector(packetBytes):sum 0
scalar SingleCell_Standalone.ue[0].cellularNic packetDropNoCarrier:vector(packetBytes):sumweights 0
scalar SingleCell_Standalone.ue[0].cellularNic packetDropNoCarrier:vector(packetBytes):mean -nan
scalar SingleCell_Standalone.ue[0].cellularNic packetDropNoCarrier:vector(packetBytes):stddev nan
scalar SingleCell_Standalone.ue[0].cellularNic packetDropNoCarrier:vector(packetBytes):min inf
scalar SingleCell_Standalone.ue[0].cellularNic packetDropNoCarrier:vector(packetBytes):max -inf
scalar SingleCell_Standalone.ue[0].cellularNic packetDropNoCarrier:vector(packetBytes):starttime nan
scalar SingleCell_Standalone.ue[0].cellularNic packetDropNoCarrier:vector(packetBytes):endtime nan
scalar SingleCell_Standalone.ue[0].encap encapPk:vector(packetBytes):count 0
scalar SingleCell_Standalone.ue[0].encap encapPk:vector(packetBytes):sum 0
scalar SingleCell_Standalone.ue[0].encap encapPk:vector(packetBytes):sumweights 0
scalar SingleCell_Standalone.ue[0].encap encapPk:vector(packetBytes):mean -nan
scalar SingleCell_Standalone.ue[0].encap encapPk:vector(packetBytes):stddev nan
scalar SingleCell_Standalone.ue[0].encap encapPk:vector(packetBytes):min inf
scalar SingleCell_Standalone.ue[0].encap encapPk:vector(packetBytes):max -inf
scalar SingleCell_Standalone.ue[0].encap encapPk:vector(packetBytes):starttime nan
scalar SingleCell_Standalone.ue[0].encap encapPk:vector(packetBytes):endtime nan
scalar SingleCell_Standalone.ue[0].encap decapPk:vector(packetBytes):count 0
scalar SingleCell_Standalone.ue[0].encap decapPk:vector(packetBytes):sum 0
scalar SingleCell_Standalone.ue[0].encap decapPk:vector(packetBytes):sumweights 0
scalar SingleCell_Standalone.ue[0].encap decapPk:vector(packetBytes):mean -nan
scalar SingleCell_Standalone.ue[0].encap decapPk:vector(packetBytes):stddev nan
scalar SingleCell_Standalone.ue[0].encap decapPk:vector(packetBytes):min inf
scalar SingleCell_Standalone.ue[0].encap decapPk:vector(packetBytes):max -inf
scalar SingleCell_Standalone.ue[0].encap decapPk:vector(packetBytes):starttime nan
scalar SingleCell_Standalone.ue[0].encap decapPk:vector(packetBytes):endtime nan
scalar SingleCell_Standalone.ue[0].encap pauseSent:vector:count 0
scalar SingleCell_Standalone.ue[0].encap pauseSent:vector:sum 0
scalar SingleCell_Standalone.ue[0].encap pauseSent:vector:sumweights 0
scalar SingleCell_Standalone.ue[0].encap pauseSent:vector:mean -nan
scalar SingleCell_Standalone.ue[0].encap pauseSent:vector:stddev nan
scalar SingleCell_Standalone.ue[0].encap pauseSent:vector:min inf
scalar SingleCell_Standalone.ue[0].encap pauseSent:vector:max -inf
scalar SingleCell_Standalone.ue[0].encap pauseSent:vector:starttime nan
scalar SingleCell_Standalone.ue[0].encap pauseSent:vector:endtime nan
scalar SingleCell_Standalone.ue[0].ipv4.ip packetDropAddressResolutionFailed:vector(packetBytes):count 0
scalar SingleCell_Standalone.ue[0].ipv4.ip packetDropAddressResolutionFailed:vector(packetBytes):sum 0
scalar SingleCell_Standalone.ue[0].ipv4.ip packetDropAddressResolutionFailed:vector(packetBytes):sumweights 0
scalar SingleCell_Standalone.ue[0].ipv4.ip packetDropAddressResolutionFailed:vector(packetBytes):mean -nan
scalar SingleCell_Standalone.ue[0].ipv4.ip packetDropAddressResolutionFailed:vector(packetBytes):stddev nan
scalar SingleCell_Standalone.ue[0].ipv4.ip packetDropAddressResolutionFailed:vector(packetBytes):min inf
scalar SingleCell_Standalone.ue[0].ipv4.ip packetDropAddressResolutionFailed:vector(packetBytes):max -inf
scalar SingleCell_Standalone.ue[0].ipv4.ip packetDropAddressResolutionFailed:vector(packetBytes):starttime nan
scalar SingleCell_Standalone.ue[0].ipv4.ip packetDropAddressResolutionFailed:vector(packetBytes):endtime nan
scalar SingleCell_Standalone.ue[0].ipv4.ip packetDropHopLimitReached:vector(packetBytes):count 0
scalar SingleCell_Standalone.ue[0].ipv4.ip packetDropHopLimitReached:vector(packetBytes):sum 0
scalar SingleCell_Standalone.ue[0].ipv4.ip packetDropHopLimitReached:vector(packetBytes):sumweights 0
scalar SingleCell_Standalone.ue[0].ipv4.ip packetDropHopLimitReached:vector(packetBytes):mean -nan
scalar SingleCell_Standalone.ue[0].ipv4.ip packetDropHopLimitReached:vector(packetBytes):stddev nan
scalar SingleCell_Standalone.ue[0].ipv4.ip packetDropHopLimitReached:vector(packetBytes):min inf
scalar SingleCell_Standalone.ue[0].ipv4.ip packetDropHopLimitReached:vector(packetBytes):max -inf
scalar SingleCell_Standalone.ue[0].ipv4.ip packetDropHopLimitReached:vector(packetBytes):starttime nan
scalar SingleCell_Standalone.ue[0].ipv4.ip packetDropHopLimitReached:vector(packetBytes):endtime nan
scalar SingleCell_Standalone.ue[0].ipv4.ip packetDropForwardingDisabled:vector(packetBytes):count 0
scalar SingleCell_Standalone.ue[0].ipv4.ip packetDropForwardingDisabled:vector(packetBytes):sum 0
scalar SingleCell_Standalone.ue[0].ipv4.ip packetDropForwardingDisabled:vector(packetBytes):sumweights 0
scalar SingleCell_Standalone.ue[0].ipv4.ip packetDropForwardingDisabled:vector(packetBytes):mean -nan
scalar SingleCell_Standalone.ue[0].ipv4.ip packetDropForwardingDisabled:vector(packetBytes):stddev nan
scalar SingleCell_Standalone.ue[0].ipv4.ip packetDropForwardingDisabled:vector(packetBytes):min inf
scalar SingleCell_Standalone.ue[0].ipv4.ip packetDropForwardingDisabled:vector(packetBytes):max -inf
scalar SingleCell_Standalone.ue[0].ipv4.ip packetDropForwardingDisabled:vector(packetBytes):starttime nan
scalar SingleCell_Standalone.ue[0].ipv4.ip packetDropForwardingDisabled:vector(packetBytes):endtime nan
scalar SingleCell_Standalone.ue[0].ipv4.ip packetDropNoInterfaceFound:vector(packetBytes):count 0
scalar SingleCell_Standalone.ue[0].ipv4.ip packetDropNoInterfaceFound:vector(packetBytes):sum 0
scalar SingleCell_Standalone.ue[0].ipv4.ip packetDropNoInterfaceFound:vector(packetBytes):sumweights 0
scalar SingleCell_Standalone.ue[0].ipv4.ip packetDropNoInterfaceFound:vector(packetBytes):mean -nan
scalar SingleCell_Standalone.ue[0].ipv4.ip packetDropNoInterfaceFound:vector(packetBytes):stddev nan
scalar SingleCell_Standalone.ue[0].ipv4.ip packetDropNoInterfaceFound:vector(packetBytes):min inf
scalar SingleCell_Standalone.ue[0].ipv4.ip packetDropNoInterfaceFound:vector(packetBytes):max -inf
scalar SingleCell_Standalone.ue[0].ipv4.ip packetDropNoInterfaceFound:vector(packetBytes):starttime nan
scalar SingleCell_Standalone.ue[0].ipv4.ip packetDropNoInterfaceFound:vector(packetBytes):endtime nan
scalar SingleCell_Standalone.ue[0].ipv4.ip packetDropNoRouteFound:vector(packetBytes):count 0
scalar SingleCell_Standalone.ue[0].ipv4.ip packetDropNoRouteFound:vector(packetBytes):sum 0
scalar SingleCell_Standalone.ue[0].ipv4.ip packetDropNoRouteFound:vector(packetBytes):sumweights 0
scalar SingleCell_Standalone.ue[0].ipv4.ip packetDropNoRouteFound:vector(packetBytes):mean -nan
scalar SingleCell_Standalone.ue[0].ipv4.ip packetDropNoRouteFound:vector(packetBytes):stddev nan
scalar SingleCell_Standalone.ue[0].ipv4.ip packetDropNoRouteFound:vector(packetBytes):min inf
scalar SingleCell_Standalone.ue[0].ipv4.ip packetDropNoRouteFound:vector(packetBytes):max -inf
scalar SingleCell_Standalone.ue[0].ipv4.ip packetDropNoRouteFound:vector(packetBytes):starttime nan
scalar SingleCell_Standalone.ue[0].ipv4.ip packetDropNoRouteFound:vector(packetBytes):endtime nan
scalar SingleCell_Standalone.ue[0].ipv4.ip packetDropUndefined:vector(packetBytes):count 0
scalar SingleCell_Standalone.ue[0].ipv4.ip packetDropUndefined:vector(packetBytes):sum 0
scalar SingleCell_Standalone.ue[0].ipv4.ip packetDropUndefined:vector(packetBytes):sumweights 0
scalar SingleCell_Standalone.ue[0].ipv4.ip packetDropUndefined:vector(packetBytes):mean -nan
scalar SingleCell_Standalone.ue[0].ipv4.ip packetDropUndefined:vector(packetBytes):stddev nan
scalar SingleCell_Standalone.ue[0].ipv4.ip packetDropUndefined:vector(packetBytes):min inf
scalar SingleCell_Standalone.ue[0].ipv4.ip packetDropUndefined:vector(packetBytes):max -inf
scalar SingleCell_Standalone.ue[0].ipv4.ip packetDropUndefined:vector(packetBytes):starttime nan
scalar SingleCell_Standalone.ue[0].ipv4.ip packetDropUndefined:vector(packetBytes):endtime nan
scalar SingleCell_Standalone.ue[0].ipv4.arp arpRequestSent:vector(packetBytes):count 0
scalar SingleCell_Standalone.ue[0].ipv4.arp arpRequestSent:vector(packetBytes):sum 0
scalar SingleCell_Standalone.ue[0].ipv4.arp arpRequestSent:vector(packetBytes):sumweights 0
scalar SingleCell_Standalone.ue[0].ipv4.arp arpRequestSent:vector(packetBytes):mean -nan
scalar SingleCell_Standalone.ue[0].ipv4.arp arpRequestSent:vector(packetBytes):stddev nan
scalar SingleCell_Standalone.ue[0].ipv4.arp arpRequestSent:vector(packetBytes):min inf
scalar SingleCell_Standalone.ue[0].ipv4.arp arpRequestSent:vector(packetBytes):max -inf
scalar SingleCell_Standalone.ue[0].ipv4.arp arpRequestSent:vector(packetBytes):starttime nan
scalar SingleCell_Standalone.ue[0].ipv4.arp arpRequestSent:vector(packetBytes):endtime nan
scalar SingleCell_Standalone.ue[0].ipv4.arp arpReplySent:vector(packetBytes):count 0
scalar SingleCell_Standalone.ue[0].ipv4.arp arpReplySent:vector(packetBytes):sum 0
scalar SingleCell_Standalone.ue[0].ipv4.arp arpReplySent:vector(packetBytes):sumweights 0
scalar SingleCell_Standalone.ue[0].ipv4.arp arpReplySent:vector(packetBytes):mean -nan
scalar SingleCell_Standalone.ue[0].ipv4.arp arpReplySent:vector(packetBytes):stddev nan
scalar SingleCell_Standalone.ue[0].ipv4.arp arpReplySent:vector(packetBytes):min inf
scalar SingleCell_Standalone.ue[0].ipv4.arp arpReplySent:vector(packetBytes):max -inf
scalar SingleCell_Standalone.ue[0].ipv4.arp arpReplySent:vector(packetBytes):starttime nan
scalar SingleCell_Standalone.ue[0].ipv4.arp arpReplySent:vector(packetBytes):endtime nan
scalar SingleCell_Standalone.ue[0].udp packetSent:vector(packetBytes):count 662
scalar SingleCell_Standalone.ue[0].udp packetSent:vector(packetBytes):sum 31776
scalar SingleCell_Standalone.ue[0].udp packetSent:vector(packetBytes):sumweights 662
scalar SingleCell_Standalone.ue[0].udp packetSent:vector(packetBytes):mean 48
scalar SingleCell_Standalone.ue[0].udp packetSent:vector(packetBytes):stddev 0
scalar SingleCell_Standalone.ue[0].udp packetSent:vector(packetBytes):min 48
scalar SingleCell_Standalone.ue[0].udp packetSent:vector(packetBytes):max 48
scalar SingleCell_Standalone.ue[0].udp packetSent:vector(packetBytes):starttime 0.0095216796500000016
scalar SingleCell_Standalone.ue[0].udp packetSent:vector(packetBytes):endtime 19.990655670336004
scalar SingleCell_Standalone.ue[0].udp packetReceived:vector(packetBytes):count 0
scalar SingleCell_Standalone.ue[0].udp packetReceived:vector(packetBytes):sum 0
scalar SingleCell_Standalone.ue[0].udp packetReceived:vector(packetBytes):sumweights 0
scalar SingleCell_Standalone.ue[0].udp packetReceived:vector(packetBytes):mean -nan
scalar SingleCell_Standalone.ue[0].udp packetReceived:vector(packetBytes):stddev nan
scalar SingleCell_Standalone.ue[0].udp packetReceived:vector(packetBytes):min inf
scalar SingleCell_Standalone.ue[0].udp packetReceived:vector(packetBytes):max -inf
scalar SingleCell_Standalone.ue[0].udp packetReceived:vector(packetBytes):starttime nan
scalar SingleCell_Standalone.ue[0].udp packetReceived:vector(packetBytes):endtime nan
scalar SingleCell_Standalone.ue[0].udp passedUpPk:vector(count):count 1
scalar SingleCell_Standalone.ue[0].udp passedUpPk:vector(count):sum 0
scalar SingleCell_Standalone.ue[0].udp passedUpPk:vector(count):sumweights 1
scalar SingleCell_Standalone.ue[0].udp passedUpPk:vector(count):mean 0
scalar SingleCell_Standalone.ue[0].udp passedUpPk:vector(count):stddev nan
scalar SingleCell_Standalone.ue[0].udp passedUpPk:vector(count):min 0
scalar SingleCell_Standalone.ue[0].udp passedUpPk:vector(count):max 0
scalar SingleCell_Standalone.ue[0].udp passedUpPk:vector(count):starttime 0
scalar SingleCell_Standalone.ue[0].udp passedUpPk:vector(count):endtime 0
scalar SingleCell_Standalone.ue[0].udp droppedPkWrongPort:vector(count):count 1
scalar SingleCell_Standalone.ue[0].udp droppedPkWrongPort:vector(count):sum 0
scalar SingleCell_Standalone.ue[0].udp droppedPkWrongPort:vector(count):sumweights 1
scalar SingleCell_Standalone.ue[0].udp droppedPkWrongPort:vector(count):mean 0
scalar SingleCell_Standalone.ue[0].udp droppedPkWrongPort:vector(count):stddev nan
scalar SingleCell_Standalone.ue[0].udp droppedPkWrongPort:vector(count):min 0
scalar SingleCell_Standalone.ue[0].udp droppedPkWrongPort:vector(count):max 0
scalar SingleCell_Standalone.ue[0].udp droppedPkWrongPort:vector(count):starttime 0
scalar SingleCell_Standalone.ue[0].udp droppedPkWrongPort:vector(count):endtime 0
scalar SingleCell_Standalone.ue[0].udp droppedPkBadChecksum:vector(count):count 1
scalar SingleCell_Standalone.ue[0].udp droppedPkBadChecksum:vector(count):sum 0
scalar SingleCell_Standalone.ue[0].udp droppedPkBadChecksum:vector(count):sumweights 1
scalar SingleCell_Standalone.ue[0].udp droppedPkBadChecksum:vector(count):mean 0
scalar SingleCell_Standalone.ue[0].udp droppedPkBadChecksum:vector(count):stddev nan
scalar SingleCell_Standalone.ue[0].udp droppedPkBadChecksum:vector(count):min 0
scalar SingleCell_Standalone.ue[0].udp droppedPkBadChecksum:vector(count):max 0
scalar SingleCell_Standalone.ue[0].udp droppedPkBadChecksum:vector(count):starttime 0
scalar SingleCell_Standalone.ue[0].udp droppedPkBadChecksum:vector(count):endtime 0
scalar SingleCell_Standalone.ue[0].app[0] voipGeneratedThroughput:vector:count 662
scalar SingleCell_Standalone.ue[0].app[0] voipGeneratedThroughput:vector:sum 1041970.9322812466
scalar SingleCell_Standalone.ue[0].app[0] voipGeneratedThroughput:vector:sumweights 662
scalar SingleCell_Standalone.ue[0].app[0] voipGeneratedThroughput:vector:mean 1573.9742179475024
scalar SingleCell_Standalone.ue[0].app[0] voipGeneratedThroughput:vector:stddev 347.2825888085938
scalar SingleCell_Standalone.ue[0].app[0] voipGeneratedThroughput:vector:min 1118.1754961134395
scalar SingleCell_Standalone.ue[0].app[0] voipGeneratedThroughput:vector:max 4200.9394844532499
scalar SingleCell_Standalone.ue[0].app[0] voipGeneratedThroughput:vector:starttime 0.0095216796500000016
scalar SingleCell_Standalone.ue[0].app[0] voipGeneratedThroughput:vector:endtime 19.990655670336004

