version 3
run VoIP-DL-0-20260709-21:30:12-651022
attr configname VoIP-DL
attr datetime 20260709-21:30:12
attr datetimef 20260709-213012
attr experiment VoIP-DL
attr inifile omnetpp.ini
attr iterationvars ""
attr iterationvarsd ""
attr iterationvarsf ""
attr measurement ""
attr network simu5g.simulations.lte.networks.MultiCell
attr processid 651022
attr repetition 0
attr replication #0
attr resultdir results
attr runnumber 0
attr seedset 0
config **.param-recording false
config image-path /home/andras/projects/Simu5G-fork/simu5g-fork/images
config output-scalar-file results/omnetpp.ini-VoIP-DL-#0.sca
config output-scalar-precision 17
config output-vector-file results/omnetpp.ini-VoIP-DL-#0.vec
config output-vector-precision 17
config record-eventlog false
config sim-time-limit 20s
config extends Handover-General
config *.ue11.numApps 1
config *.server.numApps 1
config *.ue11.app[*].typename VoipReceiver
config *.server.app[*].destAddress "\"ue11\""
config *.server.app[*].localPort 3088+ancestorIndex(0)
config *.server.app[*].typename VoipSender
config *.server.app[*].startTime 0.01s
config **.ue1*.macCellId 1
config **.ue1*.masterId 1
config **.ue2*.macCellId 2
config **.ue2*.masterId 2
config **.cellularNic.phy.enableHandover true
config *.eNodeB*.numX2Apps 1
config *.eNodeB*.x2App[*].server.localPort "5000 + ancestorIndex(1)"
config *.eNodeB1.x2App[0].client.connectAddress "\"eNodeB2%x2ppp0\""
config *.eNodeB2.x2App[0].client.connectAddress "\"eNodeB1%x2ppp0\""
config **.mobility.initFromDisplayString false
config *.eNodeB1.mobility.initialX 300m
config *.eNodeB1.mobility.initialY 250m
config *.eNodeB2.mobility.initialX 400m
config *.eNodeB2.mobility.initialY 250m
config *.ue11.mobility.initialX 350m
config *.ue11.mobility.initialY 280m
config *.ue11.mobility.speed 10mps
config *.ue11.mobility.initialMovementHeading 0deg
config *.ue11.mobility.typename LinearMobility
config *.ue11.mobility.constraintAreaMinX 250m
config *.ue11.mobility.constraintAreaMaxX 450m
config *.ue12.mobility.initialX 320m
config *.ue12.mobility.initialY 280m
config *.ue12.mobility.speed 10mps
config *.ue12.mobility.initialMovementHeading 0deg
config *.ue12.mobility.typename LinearMobility
config *.ue12.mobility.constraintAreaMinX 250m
config *.ue12.mobility.constraintAreaMaxX 450m
config *.ue*.mobility.constraintAreaMaxX 750m
config *.ue*.mobility.constraintAreaMaxY 400m
config *.ue*.mobility.constraintAreaMinX 50m
config *.ue*.mobility.constraintAreaMinY 100m
config *.ue2*.mobility.initialX uniform(450m,750m)
config *.ue2*.mobility.initialY uniform(100m,400m)
config *.ue*.mobility.initialZ 0m
config **.eNodeB*.cellularNic.phy.targetBler 0.004
config sim-time-limit 20s
config network simu5g.simulations.lte.networks.MultiCell
config **.routingRecorder.enabled false
config **.vector-recording true
config **.cellularNic.channelModel[0].shadowing false
config **.cellularNic.channelModel[0].fading false
config **.mobility.constraintAreaMinZ 0m
config **.mobility.constraintAreaMaxZ 0m
config **.mobility.initFromDisplayString true
config **.numBands 25
config **.ueTxPower 26dBm
config **.eNodeBTxPower 40dBm
config *.configurator.config "xmldoc(\"./demo.xml\")"
config **.hasRniSupport false

scalar MultiCell.eNodeB1.x2App[0].client ums 1452
scalar MultiCell.eNodeB2.x2App[0].client ums 1452
scalar MultiCell.server.lo[0].lo rcvdPkFromHl:count 0
scalar MultiCell.server.lo[0].lo rcvdPkFromHl:sum(packetBytes) 0
scalar MultiCell.server.lo[0].lo passedUpPk:count 0
scalar MultiCell.server.lo[0].lo passedUpPk:sum(packetBytes) 0
scalar MultiCell.server.lo[0] packetDropInterfaceDown:count 0
scalar MultiCell.server.lo[0] packetDropInterfaceDown:sum(packetBytes) 0
scalar MultiCell.server.lo[0] packetDropNoCarrier:count 0
scalar MultiCell.server.lo[0] packetDropNoCarrier:sum(packetBytes) 0
scalar MultiCell.server.ppp[0].queue queueLength:last 0
scalar MultiCell.server.ppp[0].queue queueLength:max 0
scalar MultiCell.server.ppp[0].queue queueLength:timeavg 0
scalar MultiCell.server.ppp[0].queue queueBitLength:last 0
scalar MultiCell.server.ppp[0].queue queueBitLength:max 0
scalar MultiCell.server.ppp[0].queue queueBitLength:timeavg 0
scalar MultiCell.server.ppp[0].queue outgoingPackets:count 702
scalar MultiCell.server.ppp[0].queue outgoingPacketLengths:sum 381888
scalar MultiCell.server.ppp[0].queue incomingPackets:count 702
scalar MultiCell.server.ppp[0].queue incomingPacketLengths:sum 381888
scalar MultiCell.server.ppp[0].queue droppedPacketsQueueOverflow:count 0
scalar MultiCell.server.ppp[0].queue droppedPacketLengthsQueueOverflow:sum 0
scalar MultiCell.server.ppp[0].ppp transmissionState:timeavg 2.1060000000000172e-06
scalar MultiCell.server.ppp[0].ppp rxPkOk:count 0
scalar MultiCell.server.ppp[0].ppp rxPkOk:sum(packetBytes) 0
scalar MultiCell.server.ppp[0].ppp txPk:count 702
scalar MultiCell.server.ppp[0].ppp txPk:sum(packetBytes) 52650
scalar MultiCell.server.ppp[0].ppp rcvdPkFromHl:count 702
scalar MultiCell.server.ppp[0].ppp rcvdPkFromHl:sum(packetBytes) 47736
scalar MultiCell.server.ppp[0].ppp passedUpPk:count 0
scalar MultiCell.server.ppp[0].ppp passedUpPk:sum(packetBytes) 0
scalar MultiCell.server.ppp[0].ppp packetDropIncorrectlyReceived:count 0
scalar MultiCell.server.ppp[0].ppp packetDropIncorrectlyReceived:sum(packetBytes) 0
scalar MultiCell.server.ppp[0].ppp packetDropInterfaceDown:count 0
scalar MultiCell.server.ppp[0].ppp packetDropInterfaceDown:sum(packetBytes) 0
scalar MultiCell.server.ppp[0] packetDropInterfaceDown:count 0
scalar MultiCell.server.ppp[0] packetDropInterfaceDown:sum(packetBytes) 0
scalar MultiCell.server.ppp[0] packetDropNoCarrier:count 0
scalar MultiCell.server.ppp[0] packetDropNoCarrier:sum(packetBytes) 0
scalar MultiCell.server.ipv4.ip packetDropAddressResolutionFailed:count 0
scalar MultiCell.server.ipv4.ip packetDropAddressResolutionFailed:sum(packetBytes) 0
scalar MultiCell.server.ipv4.ip packetDropHopLimitReached:count 0
scalar MultiCell.server.ipv4.ip packetDropHopLimitReached:sum(packetBytes) 0
scalar MultiCell.server.ipv4.ip packetDropForwardingDisabled:count 0
scalar MultiCell.server.ipv4.ip packetDropForwardingDisabled:sum(packetBytes) 0
scalar MultiCell.server.ipv4.ip packetDropNoInterfaceFound:count 0
scalar MultiCell.server.ipv4.ip packetDropNoInterfaceFound:sum(packetBytes) 0
scalar MultiCell.server.ipv4.ip packetDropNoRouteFound:count 0
scalar MultiCell.server.ipv4.ip packetDropNoRouteFound:sum(packetBytes) 0
scalar MultiCell.server.ipv4.ip packetDropUndefined:count 0
scalar MultiCell.server.ipv4.ip packetDropUndefined:sum(packetBytes) 0
scalar MultiCell.server.ipv4.arp arpResolutionFailed:count 0
scalar MultiCell.server.ipv4.arp arpResolutionCompleted:count 0
scalar MultiCell.server.ipv4.arp arpResolutionInitiated:count 0
scalar MultiCell.server.ipv4.arp arpReplySent:count 0
scalar MultiCell.server.ipv4.arp arpReplySent:sum(packetBytes) 0
scalar MultiCell.server.ipv4.arp arpRequestSent:count 0
scalar MultiCell.server.ipv4.arp arpRequestSent:sum(packetBytes) 0
scalar MultiCell.server.udp packetReceived:count 0
scalar MultiCell.server.udp packetReceived:sum(packetBytes) 0
scalar MultiCell.server.udp packetSent:count 702
scalar MultiCell.server.udp packetSent:sum(packetBytes) 33696
scalar MultiCell.server.udp passedUpPk:count 0
scalar MultiCell.server.udp droppedPkWrongPort:count 0
scalar MultiCell.server.udp droppedPkBadChecksum:count 0
scalar MultiCell.server.app[0] voIPGeneratedThroughput:mean 1652.3064662036211
scalar MultiCell.pgw.lo[0].lo rcvdPkFromHl:count 0
scalar MultiCell.pgw.lo[0].lo rcvdPkFromHl:sum(packetBytes) 0
scalar MultiCell.pgw.lo[0].lo passedUpPk:count 0
scalar MultiCell.pgw.lo[0].lo passedUpPk:sum(packetBytes) 0
scalar MultiCell.pgw.lo[0] packetDropInterfaceDown:count 0
scalar MultiCell.pgw.lo[0] packetDropInterfaceDown:sum(packetBytes) 0
scalar MultiCell.pgw.lo[0] packetDropNoCarrier:count 0
scalar MultiCell.pgw.lo[0] packetDropNoCarrier:sum(packetBytes) 0
scalar MultiCell.pgw.ppp[0].queue queueLength:last 0
scalar MultiCell.pgw.ppp[0].queue queueLength:max 0
scalar MultiCell.pgw.ppp[0].queue queueLength:timeavg 0
scalar MultiCell.pgw.ppp[0].queue queueBitLength:last 0
scalar MultiCell.pgw.ppp[0].queue queueBitLength:max 0
scalar MultiCell.pgw.ppp[0].queue queueBitLength:timeavg 0
scalar MultiCell.pgw.ppp[0].queue outgoingPackets:count 82
scalar MultiCell.pgw.ppp[0].queue outgoingPacketLengths:sum 68224
scalar MultiCell.pgw.ppp[0].queue incomingPackets:count 82
scalar MultiCell.pgw.ppp[0].queue incomingPacketLengths:sum 68224
scalar MultiCell.pgw.ppp[0].queue droppedPacketsQueueOverflow:count 0
scalar MultiCell.pgw.ppp[0].queue droppedPacketLengthsQueueOverflow:sum 0
scalar MultiCell.pgw.ppp[0].ppp transmissionState:timeavg 3.6407999999999964e-07
scalar MultiCell.pgw.ppp[0].ppp rxPkOk:count 0
scalar MultiCell.pgw.ppp[0].ppp rxPkOk:sum(packetBytes) 0
scalar MultiCell.pgw.ppp[0].ppp txPk:count 82
scalar MultiCell.pgw.ppp[0].ppp txPk:sum(packetBytes) 9102
scalar MultiCell.pgw.ppp[0].ppp rcvdPkFromHl:count 82
scalar MultiCell.pgw.ppp[0].ppp rcvdPkFromHl:sum(packetBytes) 8528
scalar MultiCell.pgw.ppp[0].ppp passedUpPk:count 0
scalar MultiCell.pgw.ppp[0].ppp passedUpPk:sum(packetBytes) 0
scalar MultiCell.pgw.ppp[0].ppp packetDropIncorrectlyReceived:count 0
scalar MultiCell.pgw.ppp[0].ppp packetDropIncorrectlyReceived:sum(packetBytes) 0
scalar MultiCell.pgw.ppp[0].ppp packetDropInterfaceDown:count 0
scalar MultiCell.pgw.ppp[0].ppp packetDropInterfaceDown:sum(packetBytes) 0
scalar MultiCell.pgw.ppp[0] packetDropInterfaceDown:count 0
scalar MultiCell.pgw.ppp[0] packetDropInterfaceDown:sum(packetBytes) 0
scalar MultiCell.pgw.ppp[0] packetDropNoCarrier:count 0
scalar MultiCell.pgw.ppp[0] packetDropNoCarrier:sum(packetBytes) 0
scalar MultiCell.pgw.ppp[1].queue queueLength:last 0
scalar MultiCell.pgw.ppp[1].queue queueLength:max 0
scalar MultiCell.pgw.ppp[1].queue queueLength:timeavg 0
scalar MultiCell.pgw.ppp[1].queue queueBitLength:last 0
scalar MultiCell.pgw.ppp[1].queue queueBitLength:max 0
scalar MultiCell.pgw.ppp[1].queue queueBitLength:timeavg 0
scalar MultiCell.pgw.ppp[1].queue outgoingPackets:count 620
scalar MultiCell.pgw.ppp[1].queue outgoingPacketLengths:sum 515840
scalar MultiCell.pgw.ppp[1].queue incomingPackets:count 620
scalar MultiCell.pgw.ppp[1].queue incomingPacketLengths:sum 515840
scalar MultiCell.pgw.ppp[1].queue droppedPacketsQueueOverflow:count 0
scalar MultiCell.pgw.ppp[1].queue droppedPacketLengthsQueueOverflow:sum 0
scalar MultiCell.pgw.ppp[1].ppp transmissionState:timeavg 2.7527999999999879e-06
scalar MultiCell.pgw.ppp[1].ppp rxPkOk:count 0
scalar MultiCell.pgw.ppp[1].ppp rxPkOk:sum(packetBytes) 0
scalar MultiCell.pgw.ppp[1].ppp txPk:count 620
scalar MultiCell.pgw.ppp[1].ppp txPk:sum(packetBytes) 68820
scalar MultiCell.pgw.ppp[1].ppp rcvdPkFromHl:count 620
scalar MultiCell.pgw.ppp[1].ppp rcvdPkFromHl:sum(packetBytes) 64480
scalar MultiCell.pgw.ppp[1].ppp passedUpPk:count 0
scalar MultiCell.pgw.ppp[1].ppp passedUpPk:sum(packetBytes) 0
scalar MultiCell.pgw.ppp[1].ppp packetDropIncorrectlyReceived:count 0
scalar MultiCell.pgw.ppp[1].ppp packetDropIncorrectlyReceived:sum(packetBytes) 0
scalar MultiCell.pgw.ppp[1].ppp packetDropInterfaceDown:count 0
scalar MultiCell.pgw.ppp[1].ppp packetDropInterfaceDown:sum(packetBytes) 0
scalar MultiCell.pgw.ppp[1] packetDropInterfaceDown:count 0
scalar MultiCell.pgw.ppp[1] packetDropInterfaceDown:sum(packetBytes) 0
scalar MultiCell.pgw.ppp[1] packetDropNoCarrier:count 0
scalar MultiCell.pgw.ppp[1] packetDropNoCarrier:sum(packetBytes) 0
scalar MultiCell.pgw.ipv4.ip packetDropAddressResolutionFailed:count 0
scalar MultiCell.pgw.ipv4.ip packetDropAddressResolutionFailed:sum(packetBytes) 0
scalar MultiCell.pgw.ipv4.ip packetDropHopLimitReached:count 0
scalar MultiCell.pgw.ipv4.ip packetDropHopLimitReached:sum(packetBytes) 0
scalar MultiCell.pgw.ipv4.ip packetDropForwardingDisabled:count 0
scalar MultiCell.pgw.ipv4.ip packetDropForwardingDisabled:sum(packetBytes) 0
scalar MultiCell.pgw.ipv4.ip packetDropNoInterfaceFound:count 0
scalar MultiCell.pgw.ipv4.ip packetDropNoInterfaceFound:sum(packetBytes) 0
scalar MultiCell.pgw.ipv4.ip packetDropNoRouteFound:count 0
scalar MultiCell.pgw.ipv4.ip packetDropNoRouteFound:sum(packetBytes) 0
scalar MultiCell.pgw.ipv4.ip packetDropUndefined:count 0
scalar MultiCell.pgw.ipv4.ip packetDropUndefined:sum(packetBytes) 0
scalar MultiCell.pgw.ipv4.arp arpResolutionFailed:count 0
scalar MultiCell.pgw.ipv4.arp arpResolutionCompleted:count 0
scalar MultiCell.pgw.ipv4.arp arpResolutionInitiated:count 0
scalar MultiCell.pgw.ipv4.arp arpReplySent:count 0
scalar MultiCell.pgw.ipv4.arp arpReplySent:sum(packetBytes) 0
scalar MultiCell.pgw.ipv4.arp arpRequestSent:count 0
scalar MultiCell.pgw.ipv4.arp arpRequestSent:sum(packetBytes) 0
scalar MultiCell.pgw.pppIf.queue queueLength:last 0
scalar MultiCell.pgw.pppIf.queue queueLength:max 0
scalar MultiCell.pgw.pppIf.queue queueLength:timeavg 0
scalar MultiCell.pgw.pppIf.queue queueBitLength:last 0
scalar MultiCell.pgw.pppIf.queue queueBitLength:max 0
scalar MultiCell.pgw.pppIf.queue queueBitLength:timeavg 0
scalar MultiCell.pgw.pppIf.queue outgoingPackets:count 0
scalar MultiCell.pgw.pppIf.queue outgoingPacketLengths:sum 0
scalar MultiCell.pgw.pppIf.queue incomingPackets:count 0
scalar MultiCell.pgw.pppIf.queue incomingPacketLengths:sum 0
scalar MultiCell.pgw.pppIf.queue droppedPacketsQueueOverflow:count 0
scalar MultiCell.pgw.pppIf.queue droppedPacketLengthsQueueOverflow:sum 0
scalar MultiCell.pgw.pppIf.ppp transmissionState:timeavg 0
scalar MultiCell.pgw.pppIf.ppp rxPkOk:count 702
scalar MultiCell.pgw.pppIf.ppp rxPkOk:sum(packetBytes) 52650
scalar MultiCell.pgw.pppIf.ppp txPk:count 0
scalar MultiCell.pgw.pppIf.ppp txPk:sum(packetBytes) 0
scalar MultiCell.pgw.pppIf.ppp rcvdPkFromHl:count 0
scalar MultiCell.pgw.pppIf.ppp rcvdPkFromHl:sum(packetBytes) 0
scalar MultiCell.pgw.pppIf.ppp passedUpPk:count 702
scalar MultiCell.pgw.pppIf.ppp passedUpPk:sum(packetBytes) 47736
scalar MultiCell.pgw.pppIf.ppp packetDropIncorrectlyReceived:count 0
scalar MultiCell.pgw.pppIf.ppp packetDropIncorrectlyReceived:sum(packetBytes) 0
scalar MultiCell.pgw.pppIf.ppp packetDropInterfaceDown:count 0
scalar MultiCell.pgw.pppIf.ppp packetDropInterfaceDown:sum(packetBytes) 0
scalar MultiCell.pgw.pppIf packetDropInterfaceDown:count 0
scalar MultiCell.pgw.pppIf packetDropInterfaceDown:sum(packetBytes) 0
scalar MultiCell.pgw.pppIf packetDropNoCarrier:count 0
scalar MultiCell.pgw.pppIf packetDropNoCarrier:sum(packetBytes) 0
scalar MultiCell.pgw.udp packetReceived:count 0
scalar MultiCell.pgw.udp packetReceived:sum(packetBytes) 0
scalar MultiCell.pgw.udp packetSent:count 702
scalar MultiCell.pgw.udp packetSent:sum(packetBytes) 58968
scalar MultiCell.pgw.udp passedUpPk:count 0
scalar MultiCell.pgw.udp droppedPkWrongPort:count 0
scalar MultiCell.pgw.udp droppedPkBadChecksum:count 0
scalar MultiCell.router.lo[0].lo rcvdPkFromHl:count 0
scalar MultiCell.router.lo[0].lo rcvdPkFromHl:sum(packetBytes) 0
scalar MultiCell.router.lo[0].lo passedUpPk:count 0
scalar MultiCell.router.lo[0].lo passedUpPk:sum(packetBytes) 0
scalar MultiCell.router.lo[0] packetDropInterfaceDown:count 0
scalar MultiCell.router.lo[0] packetDropInterfaceDown:sum(packetBytes) 0
scalar MultiCell.router.lo[0] packetDropNoCarrier:count 0
scalar MultiCell.router.lo[0] packetDropNoCarrier:sum(packetBytes) 0
scalar MultiCell.router.ppp[0].queue queueLength:last 0
scalar MultiCell.router.ppp[0].queue queueLength:max 0
scalar MultiCell.router.ppp[0].queue queueLength:timeavg 0
scalar MultiCell.router.ppp[0].queue queueBitLength:last 0
scalar MultiCell.router.ppp[0].queue queueBitLength:max 0
scalar MultiCell.router.ppp[0].queue queueBitLength:timeavg 0
scalar MultiCell.router.ppp[0].queue outgoingPackets:count 0
scalar MultiCell.router.ppp[0].queue outgoingPacketLengths:sum 0
scalar MultiCell.router.ppp[0].queue incomingPackets:count 0
scalar MultiCell.router.ppp[0].queue incomingPacketLengths:sum 0
scalar MultiCell.router.ppp[0].queue droppedPacketsQueueOverflow:count 0
scalar MultiCell.router.ppp[0].queue droppedPacketLengthsQueueOverflow:sum 0
scalar MultiCell.router.ppp[0].ppp transmissionState:timeavg 0
scalar MultiCell.router.ppp[0].ppp rxPkOk:count 702
scalar MultiCell.router.ppp[0].ppp rxPkOk:sum(packetBytes) 52650
scalar MultiCell.router.ppp[0].ppp txPk:count 0
scalar MultiCell.router.ppp[0].ppp txPk:sum(packetBytes) 0
scalar MultiCell.router.ppp[0].ppp rcvdPkFromHl:count 0
scalar MultiCell.router.ppp[0].ppp rcvdPkFromHl:sum(packetBytes) 0
scalar MultiCell.router.ppp[0].ppp passedUpPk:count 702
scalar MultiCell.router.ppp[0].ppp passedUpPk:sum(packetBytes) 47736
scalar MultiCell.router.ppp[0].ppp packetDropIncorrectlyReceived:count 0
scalar MultiCell.router.ppp[0].ppp packetDropIncorrectlyReceived:sum(packetBytes) 0
scalar MultiCell.router.ppp[0].ppp packetDropInterfaceDown:count 0
scalar MultiCell.router.ppp[0].ppp packetDropInterfaceDown:sum(packetBytes) 0
scalar MultiCell.router.ppp[0] packetDropInterfaceDown:count 0
scalar MultiCell.router.ppp[0] packetDropInterfaceDown:sum(packetBytes) 0
scalar MultiCell.router.ppp[0] packetDropNoCarrier:count 0
scalar MultiCell.router.ppp[0] packetDropNoCarrier:sum(packetBytes) 0
scalar MultiCell.router.ppp[1].queue queueLength:last 0
scalar MultiCell.router.ppp[1].queue queueLength:max 0
scalar MultiCell.router.ppp[1].queue queueLength:timeavg 0
scalar MultiCell.router.ppp[1].queue queueBitLength:last 0
scalar MultiCell.router.ppp[1].queue queueBitLength:max 0
scalar MultiCell.router.ppp[1].queue queueBitLength:timeavg 0
scalar MultiCell.router.ppp[1].queue outgoingPackets:count 702
scalar MultiCell.router.ppp[1].queue outgoingPacketLengths:sum 381888
scalar MultiCell.router.ppp[1].queue incomingPackets:count 702
scalar MultiCell.router.ppp[1].queue incomingPacketLengths:sum 381888
scalar MultiCell.router.ppp[1].queue droppedPacketsQueueOverflow:count 0
scalar MultiCell.router.ppp[1].queue droppedPacketLengthsQueueOverflow:sum 0
scalar MultiCell.router.ppp[1].ppp transmissionState:timeavg 2.1060000000000172e-06
scalar MultiCell.router.ppp[1].ppp rxPkOk:count 0
scalar MultiCell.router.ppp[1].ppp rxPkOk:sum(packetBytes) 0
scalar MultiCell.router.ppp[1].ppp txPk:count 702
scalar MultiCell.router.ppp[1].ppp txPk:sum(packetBytes) 52650
scalar MultiCell.router.ppp[1].ppp rcvdPkFromHl:count 702
scalar MultiCell.router.ppp[1].ppp rcvdPkFromHl:sum(packetBytes) 47736
scalar MultiCell.router.ppp[1].ppp passedUpPk:count 0
scalar MultiCell.router.ppp[1].ppp passedUpPk:sum(packetBytes) 0
scalar MultiCell.router.ppp[1].ppp packetDropIncorrectlyReceived:count 0
scalar MultiCell.router.ppp[1].ppp packetDropIncorrectlyReceived:sum(packetBytes) 0
scalar MultiCell.router.ppp[1].ppp packetDropInterfaceDown:count 0
scalar MultiCell.router.ppp[1].ppp packetDropInterfaceDown:sum(packetBytes) 0
scalar MultiCell.router.ppp[1] packetDropInterfaceDown:count 0
scalar MultiCell.router.ppp[1] packetDropInterfaceDown:sum(packetBytes) 0
scalar MultiCell.router.ppp[1] packetDropNoCarrier:count 0
scalar MultiCell.router.ppp[1] packetDropNoCarrier:sum(packetBytes) 0
scalar MultiCell.router.ipv4.ip packetDropAddressResolutionFailed:count 0
scalar MultiCell.router.ipv4.ip packetDropAddressResolutionFailed:sum(packetBytes) 0
scalar MultiCell.router.ipv4.ip packetDropHopLimitReached:count 0
scalar MultiCell.router.ipv4.ip packetDropHopLimitReached:sum(packetBytes) 0
scalar MultiCell.router.ipv4.ip packetDropForwardingDisabled:count 0
scalar MultiCell.router.ipv4.ip packetDropForwardingDisabled:sum(packetBytes) 0
scalar MultiCell.router.ipv4.ip packetDropNoInterfaceFound:count 0
scalar MultiCell.router.ipv4.ip packetDropNoInterfaceFound:sum(packetBytes) 0
scalar MultiCell.router.ipv4.ip packetDropNoRouteFound:count 0
scalar MultiCell.router.ipv4.ip packetDropNoRouteFound:sum(packetBytes) 0
scalar MultiCell.router.ipv4.ip packetDropUndefined:count 0
scalar MultiCell.router.ipv4.ip packetDropUndefined:sum(packetBytes) 0
scalar MultiCell.router.ipv4.arp arpResolutionFailed:count 0
scalar MultiCell.router.ipv4.arp arpResolutionCompleted:count 0
scalar MultiCell.router.ipv4.arp arpResolutionInitiated:count 0
scalar MultiCell.router.ipv4.arp arpReplySent:count 0
scalar MultiCell.router.ipv4.arp arpReplySent:sum(packetBytes) 0
scalar MultiCell.router.ipv4.arp arpRequestSent:count 0
scalar MultiCell.router.ipv4.arp arpRequestSent:sum(packetBytes) 0
scalar MultiCell.eNodeB1.cellularNic.pdcp sentPacketToLowerLayer:count 80
scalar MultiCell.eNodeB1.cellularNic.pdcp sentPacketToLowerLayer:sum(packetBytes) 5520
scalar MultiCell.eNodeB1.cellularNic.pdcp sentPacketToUpperLayer:count 0
scalar MultiCell.eNodeB1.cellularNic.pdcp sentPacketToUpperLayer:sum(packetBytes) 0
scalar MultiCell.eNodeB1.cellularNic.pdcp receivedPacketFromLowerLayer:count 0
scalar MultiCell.eNodeB1.cellularNic.pdcp receivedPacketFromLowerLayer:sum(packetBytes) 0
scalar MultiCell.eNodeB1.cellularNic.pdcp receivedPacketFromUpperLayer:count 80
scalar MultiCell.eNodeB1.cellularNic.pdcp receivedPacketFromUpperLayer:sum(packetBytes) 5440
scalar MultiCell.eNodeB1.cellularNic.rlc.tm rlcPacketLossUl:mean -nan
scalar MultiCell.eNodeB1.cellularNic.rlc.tm rlcPacketLossUl:sum 0
scalar MultiCell.eNodeB1.cellularNic.rlc.tm rlcPacketLossDl:mean -nan
scalar MultiCell.eNodeB1.cellularNic.rlc.tm rlcPacketLossDl:sum 0
scalar MultiCell.eNodeB1.cellularNic.rlc.tm sentPacketToLowerLayer:count 0
scalar MultiCell.eNodeB1.cellularNic.rlc.tm sentPacketToLowerLayer:sum(packetBytes) 0
scalar MultiCell.eNodeB1.cellularNic.rlc.tm sentPacketToUpperLayer:count 0
scalar MultiCell.eNodeB1.cellularNic.rlc.tm sentPacketToUpperLayer:sum(packetBytes) 0
scalar MultiCell.eNodeB1.cellularNic.rlc.tm receivedPacketFromLowerLayer:count 0
scalar MultiCell.eNodeB1.cellularNic.rlc.tm receivedPacketFromLowerLayer:sum(packetBytes) 0
scalar MultiCell.eNodeB1.cellularNic.rlc.tm receivedPacketFromUpperLayer:count 0
scalar MultiCell.eNodeB1.cellularNic.rlc.tm receivedPacketFromUpperLayer:sum(packetBytes) 0
scalar MultiCell.eNodeB1.cellularNic.rlc.um rlcPacketLossTotal:mean -nan
scalar MultiCell.eNodeB1.cellularNic.rlc.um rlcCellThroughputUl:mean -nan
scalar MultiCell.eNodeB1.cellularNic.rlc.um rlcCellThroughputDl:mean 3427.1045092639274
scalar MultiCell.eNodeB1.cellularNic.rlc.um rlcPduThroughputUl:mean -nan
scalar MultiCell.eNodeB1.cellularNic.rlc.um rlcPduThroughputDl:mean -nan
scalar MultiCell.eNodeB1.cellularNic.rlc.um rlcPduDelayUl:mean -nan
scalar MultiCell.eNodeB1.cellularNic.rlc.um rlcPduDelayDl:mean -nan
scalar MultiCell.eNodeB1.cellularNic.rlc.um rlcThroughputUl:mean -nan
scalar MultiCell.eNodeB1.cellularNic.rlc.um rlcThroughputDl:mean -nan
scalar MultiCell.eNodeB1.cellularNic.rlc.um rlcDelayUl:mean -nan
scalar MultiCell.eNodeB1.cellularNic.rlc.um rlcDelayDl:mean -nan
scalar MultiCell.eNodeB1.cellularNic.rlc.um rlcPduPacketLossUl:mean -nan
scalar MultiCell.eNodeB1.cellularNic.rlc.um rlcPduPacketLossDl:mean -nan
scalar MultiCell.eNodeB1.cellularNic.rlc.um rlcPacketLossUl:mean -nan
scalar MultiCell.eNodeB1.cellularNic.rlc.um rlcPacketLossUl:sum 0
scalar MultiCell.eNodeB1.cellularNic.rlc.um rlcPacketLossDl:mean -nan
scalar MultiCell.eNodeB1.cellularNic.rlc.um rlcPacketLossDl:sum 0
scalar MultiCell.eNodeB1.cellularNic.rlc.um rlcCellPacketLossUl:mean -nan
scalar MultiCell.eNodeB1.cellularNic.rlc.um rlcCellPacketLossDl:mean 0
scalar MultiCell.eNodeB1.cellularNic.rlc.um sentPacketToLowerLayer:count 80
scalar MultiCell.eNodeB1.cellularNic.rlc.um sentPacketToLowerLayer:sum(packetBytes) 5680
scalar MultiCell.eNodeB1.cellularNic.rlc.um sentPacketToUpperLayer:count 0
scalar MultiCell.eNodeB1.cellularNic.rlc.um sentPacketToUpperLayer:sum(packetBytes) 0
scalar MultiCell.eNodeB1.cellularNic.rlc.um receivedPacketFromLowerLayer:count 0
scalar MultiCell.eNodeB1.cellularNic.rlc.um receivedPacketFromLowerLayer:sum(packetBytes) 0
scalar MultiCell.eNodeB1.cellularNic.rlc.um receivedPacketFromUpperLayer:count 80
scalar MultiCell.eNodeB1.cellularNic.rlc.um receivedPacketFromUpperLayer:sum(packetBytes) 5520
scalar MultiCell.eNodeB1.cellularNic.rlc.am rlcPacketLossTotal:mean -nan
scalar MultiCell.eNodeB1.cellularNic.rlc.am rlcCellThroughputUl:mean -nan
scalar MultiCell.eNodeB1.cellularNic.rlc.am rlcCellThroughputDl:mean -nan
scalar MultiCell.eNodeB1.cellularNic.rlc.am rlcPduThroughputUl:mean -nan
scalar MultiCell.eNodeB1.cellularNic.rlc.am rlcPduThroughputDl:mean -nan
scalar MultiCell.eNodeB1.cellularNic.rlc.am rlcPduDelayUl:mean -nan
scalar MultiCell.eNodeB1.cellularNic.rlc.am rlcPduDelayDl:mean -nan
scalar MultiCell.eNodeB1.cellularNic.rlc.am rlcThroughputUl:mean -nan
scalar MultiCell.eNodeB1.cellularNic.rlc.am rlcThroughputDl:mean -nan
scalar MultiCell.eNodeB1.cellularNic.rlc.am rlcDelayUl:mean -nan
scalar MultiCell.eNodeB1.cellularNic.rlc.am rlcDelayDl:mean -nan
scalar MultiCell.eNodeB1.cellularNic.rlc.am rlcPduPacketLossUl:mean -nan
scalar MultiCell.eNodeB1.cellularNic.rlc.am rlcPduPacketLossDl:mean -nan
scalar MultiCell.eNodeB1.cellularNic.rlc.am rlcPacketLossUl:mean -nan
scalar MultiCell.eNodeB1.cellularNic.rlc.am rlcPacketLossDl:mean -nan
scalar MultiCell.eNodeB1.cellularNic.rlc.am rlcCellPacketLossUl:mean -nan
scalar MultiCell.eNodeB1.cellularNic.rlc.am rlcCellPacketLossDl:mean -nan
scalar MultiCell.eNodeB1.cellularNic.mac avgServedBlocksUl:mean 0
scalar MultiCell.eNodeB1.cellularNic.mac avgServedBlocksDl:mean 0.0040000000000000001
scalar MultiCell.eNodeB1.cellularNic.mac harqTxAttemptsUl:mean -nan
scalar MultiCell.eNodeB1.cellularNic.mac harqTxAttemptsDl:mean -nan
scalar MultiCell.eNodeB1.cellularNic.mac harqErrorRate_4th_Ul:mean -nan
scalar MultiCell.eNodeB1.cellularNic.mac harqErrorRate_4th_Dl:mean -nan
scalar MultiCell.eNodeB1.cellularNic.mac harqErrorRate_3rd_Ul:mean -nan
scalar MultiCell.eNodeB1.cellularNic.mac harqErrorRate_3rd_Dl:mean -nan
scalar MultiCell.eNodeB1.cellularNic.mac harqErrorRate_2nd_Ul:mean -nan
scalar MultiCell.eNodeB1.cellularNic.mac harqErrorRate_2nd_Dl:mean -nan
scalar MultiCell.eNodeB1.cellularNic.mac harqErrorRate_1st_Ul:mean -nan
scalar MultiCell.eNodeB1.cellularNic.mac harqErrorRate_1st_Dl:mean -nan
scalar MultiCell.eNodeB1.cellularNic.mac harqErrorRateUl:mean -nan
scalar MultiCell.eNodeB1.cellularNic.mac harqErrorRateDl:mean -nan
scalar MultiCell.eNodeB1.cellularNic.mac macCellPacketLossUl:mean -nan
scalar MultiCell.eNodeB1.cellularNic.mac macCellPacketLossDl:mean 0
scalar MultiCell.eNodeB1.cellularNic.mac macPacketLossUl:mean -nan
scalar MultiCell.eNodeB1.cellularNic.mac macPacketLossDl:mean -nan
scalar MultiCell.eNodeB1.cellularNic.mac macThroughputUl:mean -nan
scalar MultiCell.eNodeB1.cellularNic.mac macThroughputDl:mean -nan
scalar MultiCell.eNodeB1.cellularNic.mac macDelayUl:mean -nan
scalar MultiCell.eNodeB1.cellularNic.mac macDelayDl:mean -nan
scalar MultiCell.eNodeB1.cellularNic.mac macCellThroughputUl:mean -nan
scalar MultiCell.eNodeB1.cellularNic.mac macCellThroughputDl:mean 3625.7772344386476
scalar MultiCell.eNodeB1.cellularNic.mac sentPacketToLowerLayer:count 80
scalar MultiCell.eNodeB1.cellularNic.mac sentPacketToLowerLayer:sum(packetBytes) 5840
scalar MultiCell.eNodeB1.cellularNic.mac sentPacketToUpperLayer:count 80
scalar MultiCell.eNodeB1.cellularNic.mac sentPacketToUpperLayer:sum(packetBytes) 80
scalar MultiCell.eNodeB1.cellularNic.mac receivedPacketFromLowerLayer:count 1264
scalar MultiCell.eNodeB1.cellularNic.mac receivedPacketFromLowerLayer:sum(packetBytes) 1264
scalar MultiCell.eNodeB1.cellularNic.mac receivedPacketFromUpperLayer:count 160
scalar MultiCell.eNodeB1.cellularNic.mac receivedPacketFromUpperLayer:sum(packetBytes) 11360
scalar MultiCell.eNodeB1.cellularNic.mac macBufferOverFlowD2D:mean -nan
scalar MultiCell.eNodeB1.cellularNic.mac macBufferOverFlowUl:mean -nan
scalar MultiCell.eNodeB1.cellularNic.mac macBufferOverFlowDl:mean -nan
scalar MultiCell.eNodeB1.cellularNic.channelModel[0] measuredSinrUl:mean -nan
scalar MultiCell.eNodeB1.cellularNic.channelModel[0] measuredSinrDl:mean -nan
scalar MultiCell.eNodeB1.cellularNic.channelModel[0] rcvdSinrD2D:mean -nan
scalar MultiCell.eNodeB1.cellularNic.channelModel[0] rcvdSinrUl:mean -nan
scalar MultiCell.eNodeB1.cellularNic.channelModel[0] rcvdSinrDl:mean -nan
scalar MultiCell.eNodeB1.cellularNic packetDropInterfaceDown:count 0
scalar MultiCell.eNodeB1.cellularNic packetDropInterfaceDown:sum(packetBytes) 0
scalar MultiCell.eNodeB1.cellularNic packetDropNoCarrier:count 0
scalar MultiCell.eNodeB1.cellularNic packetDropNoCarrier:sum(packetBytes) 0
scalar MultiCell.eNodeB1.pppIf.queue queueLength:last 0
scalar MultiCell.eNodeB1.pppIf.queue queueLength:max 0
scalar MultiCell.eNodeB1.pppIf.queue queueLength:timeavg 0
scalar MultiCell.eNodeB1.pppIf.queue queueBitLength:last 0
scalar MultiCell.eNodeB1.pppIf.queue queueBitLength:max 0
scalar MultiCell.eNodeB1.pppIf.queue queueBitLength:timeavg 0
scalar MultiCell.eNodeB1.pppIf.queue outgoingPackets:count 0
scalar MultiCell.eNodeB1.pppIf.queue outgoingPacketLengths:sum 0
scalar MultiCell.eNodeB1.pppIf.queue incomingPackets:count 0
scalar MultiCell.eNodeB1.pppIf.queue incomingPacketLengths:sum 0
scalar MultiCell.eNodeB1.pppIf.queue droppedPacketsQueueOverflow:count 0
scalar MultiCell.eNodeB1.pppIf.queue droppedPacketLengthsQueueOverflow:sum 0
scalar MultiCell.eNodeB1.pppIf.ppp transmissionState:timeavg 0
scalar MultiCell.eNodeB1.pppIf.ppp rxPkOk:count 82
scalar MultiCell.eNodeB1.pppIf.ppp rxPkOk:sum(packetBytes) 9102
scalar MultiCell.eNodeB1.pppIf.ppp txPk:count 0
scalar MultiCell.eNodeB1.pppIf.ppp txPk:sum(packetBytes) 0
scalar MultiCell.eNodeB1.pppIf.ppp rcvdPkFromHl:count 0
scalar MultiCell.eNodeB1.pppIf.ppp rcvdPkFromHl:sum(packetBytes) 0
scalar MultiCell.eNodeB1.pppIf.ppp passedUpPk:count 82
scalar MultiCell.eNodeB1.pppIf.ppp passedUpPk:sum(packetBytes) 8528
scalar MultiCell.eNodeB1.pppIf.ppp packetDropIncorrectlyReceived:count 0
scalar MultiCell.eNodeB1.pppIf.ppp packetDropIncorrectlyReceived:sum(packetBytes) 0
scalar MultiCell.eNodeB1.pppIf.ppp packetDropInterfaceDown:count 0
scalar MultiCell.eNodeB1.pppIf.ppp packetDropInterfaceDown:sum(packetBytes) 0
scalar MultiCell.eNodeB1.pppIf packetDropInterfaceDown:count 0
scalar MultiCell.eNodeB1.pppIf packetDropInterfaceDown:sum(packetBytes) 0
scalar MultiCell.eNodeB1.pppIf packetDropNoCarrier:count 0
scalar MultiCell.eNodeB1.pppIf packetDropNoCarrier:sum(packetBytes) 0
scalar MultiCell.eNodeB1.x2ppp[0].queue queueLength:last 0
scalar MultiCell.eNodeB1.x2ppp[0].queue queueLength:max 4
scalar MultiCell.eNodeB1.x2ppp[0].queue queueLength:timeavg 4.8659999999999994e-08
scalar MultiCell.eNodeB1.x2ppp[0].queue queueBitLength:last 0
scalar MultiCell.eNodeB1.x2ppp[0].queue queueBitLength:max 1536
scalar MultiCell.eNodeB1.x2ppp[0].queue queueBitLength:timeavg 1.8051840000000002e-05
scalar MultiCell.eNodeB1.x2ppp[0].queue outgoingPackets:count 22
scalar MultiCell.eNodeB1.x2ppp[0].queue outgoingPacketLengths:sum 11456
scalar MultiCell.eNodeB1.x2ppp[0].queue incomingPackets:count 22
scalar MultiCell.eNodeB1.x2ppp[0].queue incomingPacketLengths:sum 11456
scalar MultiCell.eNodeB1.x2ppp[0].queue droppedPacketsQueueOverflow:count 0
scalar MultiCell.eNodeB1.x2ppp[0].queue droppedPacketLengthsQueueOverflow:sum 0
scalar MultiCell.eNodeB1.x2ppp[0].ppp transmissionState:timeavg 6.3440000000000004e-08
scalar MultiCell.eNodeB1.x2ppp[0].ppp rxPkOk:count 20
scalar MultiCell.eNodeB1.x2ppp[0].ppp rxPkOk:sum(packetBytes) 1356
scalar MultiCell.eNodeB1.x2ppp[0].ppp txPk:count 22
scalar MultiCell.eNodeB1.x2ppp[0].ppp txPk:sum(packetBytes) 1586
scalar MultiCell.eNodeB1.x2ppp[0].ppp rcvdPkFromHl:count 22
scalar MultiCell.eNodeB1.x2ppp[0].ppp rcvdPkFromHl:sum(packetBytes) 1432
scalar MultiCell.eNodeB1.x2ppp[0].ppp passedUpPk:count 20
scalar MultiCell.eNodeB1.x2ppp[0].ppp passedUpPk:sum(packetBytes) 1216
scalar MultiCell.eNodeB1.x2ppp[0].ppp packetDropIncorrectlyReceived:count 0
scalar MultiCell.eNodeB1.x2ppp[0].ppp packetDropIncorrectlyReceived:sum(packetBytes) 0
scalar MultiCell.eNodeB1.x2ppp[0].ppp packetDropInterfaceDown:count 0
scalar MultiCell.eNodeB1.x2ppp[0].ppp packetDropInterfaceDown:sum(packetBytes) 0
scalar MultiCell.eNodeB1.x2ppp[0] packetDropInterfaceDown:count 0
scalar MultiCell.eNodeB1.x2ppp[0] packetDropInterfaceDown:sum(packetBytes) 0
scalar MultiCell.eNodeB1.x2ppp[0] packetDropNoCarrier:count 0
scalar MultiCell.eNodeB1.x2ppp[0] packetDropNoCarrier:sum(packetBytes) 0
scalar MultiCell.eNodeB1.pppMEHostIf.queue queueLength:last 0
scalar MultiCell.eNodeB1.pppMEHostIf.queue queueLength:max 0
scalar MultiCell.eNodeB1.pppMEHostIf.queue queueLength:timeavg 0
scalar MultiCell.eNodeB1.pppMEHostIf.queue queueBitLength:last 0
scalar MultiCell.eNodeB1.pppMEHostIf.queue queueBitLength:max 0
scalar MultiCell.eNodeB1.pppMEHostIf.queue queueBitLength:timeavg 0
scalar MultiCell.eNodeB1.pppMEHostIf.queue outgoingPackets:count 0
scalar MultiCell.eNodeB1.pppMEHostIf.queue outgoingPacketLengths:sum 0
scalar MultiCell.eNodeB1.pppMEHostIf.queue incomingPackets:count 0
scalar MultiCell.eNodeB1.pppMEHostIf.queue incomingPacketLengths:sum 0
scalar MultiCell.eNodeB1.pppMEHostIf.queue droppedPacketsQueueOverflow:count 0
scalar MultiCell.eNodeB1.pppMEHostIf.queue droppedPacketLengthsQueueOverflow:sum 0
scalar MultiCell.eNodeB1.pppMEHostIf.ppp transmissionState:timeavg 0
scalar MultiCell.eNodeB1.pppMEHostIf.ppp rxPkOk:count 0
scalar MultiCell.eNodeB1.pppMEHostIf.ppp rxPkOk:sum(packetBytes) 0
scalar MultiCell.eNodeB1.pppMEHostIf.ppp txPk:count 0
scalar MultiCell.eNodeB1.pppMEHostIf.ppp txPk:sum(packetBytes) 0
scalar MultiCell.eNodeB1.pppMEHostIf.ppp rcvdPkFromHl:count 0
scalar MultiCell.eNodeB1.pppMEHostIf.ppp rcvdPkFromHl:sum(packetBytes) 0
scalar MultiCell.eNodeB1.pppMEHostIf.ppp passedUpPk:count 0
scalar MultiCell.eNodeB1.pppMEHostIf.ppp passedUpPk:sum(packetBytes) 0
scalar MultiCell.eNodeB1.pppMEHostIf.ppp packetDropIncorrectlyReceived:count 0
scalar MultiCell.eNodeB1.pppMEHostIf.ppp packetDropIncorrectlyReceived:sum(packetBytes) 0
scalar MultiCell.eNodeB1.pppMEHostIf.ppp packetDropInterfaceDown:count 0
scalar MultiCell.eNodeB1.pppMEHostIf.ppp packetDropInterfaceDown:sum(packetBytes) 0
scalar MultiCell.eNodeB1.pppMEHostIf packetDropInterfaceDown:count 0
scalar MultiCell.eNodeB1.pppMEHostIf packetDropInterfaceDown:sum(packetBytes) 0
scalar MultiCell.eNodeB1.pppMEHostIf packetDropNoCarrier:count 0
scalar MultiCell.eNodeB1.pppMEHostIf packetDropNoCarrier:sum(packetBytes) 0
scalar MultiCell.eNodeB1.ipv4.ip packetDropAddressResolutionFailed:count 0
scalar MultiCell.eNodeB1.ipv4.ip packetDropAddressResolutionFailed:sum(packetBytes) 0
scalar MultiCell.eNodeB1.ipv4.ip packetDropHopLimitReached:count 0
scalar MultiCell.eNodeB1.ipv4.ip packetDropHopLimitReached:sum(packetBytes) 0
scalar MultiCell.eNodeB1.ipv4.ip packetDropForwardingDisabled:count 0
scalar MultiCell.eNodeB1.ipv4.ip packetDropForwardingDisabled:sum(packetBytes) 0
scalar MultiCell.eNodeB1.ipv4.ip packetDropNoInterfaceFound:count 0
scalar MultiCell.eNodeB1.ipv4.ip packetDropNoInterfaceFound:sum(packetBytes) 0
scalar MultiCell.eNodeB1.ipv4.ip packetDropNoRouteFound:count 0
scalar MultiCell.eNodeB1.ipv4.ip packetDropNoRouteFound:sum(packetBytes) 0
scalar MultiCell.eNodeB1.ipv4.ip packetDropUndefined:count 0
scalar MultiCell.eNodeB1.ipv4.ip packetDropUndefined:sum(packetBytes) 0
scalar MultiCell.eNodeB1.ipv4.arp arpResolutionFailed:count 0
scalar MultiCell.eNodeB1.ipv4.arp arpResolutionCompleted:count 0
scalar MultiCell.eNodeB1.ipv4.arp arpResolutionInitiated:count 0
scalar MultiCell.eNodeB1.ipv4.arp arpReplySent:count 0
scalar MultiCell.eNodeB1.ipv4.arp arpReplySent:sum(packetBytes) 0
scalar MultiCell.eNodeB1.ipv4.arp arpRequestSent:count 0
scalar MultiCell.eNodeB1.ipv4.arp arpRequestSent:sum(packetBytes) 0
scalar MultiCell.eNodeB1.udp packetReceived:count 82
scalar MultiCell.eNodeB1.udp packetReceived:sum(packetBytes) 6888
scalar MultiCell.eNodeB1.udp packetSent:count 2
scalar MultiCell.eNodeB1.udp packetSent:sum(packetBytes) 176
scalar MultiCell.eNodeB1.udp passedUpPk:count 82
scalar MultiCell.eNodeB1.udp droppedPkWrongPort:count 0
scalar MultiCell.eNodeB1.udp droppedPkBadChecksum:count 0
scalar MultiCell.eNodeB1.x2App[0].client packetReceived:count 2
scalar MultiCell.eNodeB1.x2App[0].client packetReceived:sum(packetBytes) 30
scalar MultiCell.eNodeB1.x2App[0].client packetSent:count 0
scalar MultiCell.eNodeB1.x2App[0].client packetSent:sum(packetBytes) 0
scalar MultiCell.eNodeB1.x2App[0].client echoedPk:count 0
scalar MultiCell.eNodeB1.x2App[0].client echoedPk:sum(packetBytes) 0
scalar MultiCell.eNodeB1.x2App[0].server "bytes rcvd" 0
scalar MultiCell.eNodeB1.x2App[0].server throughput -nan
scalar MultiCell.eNodeB1.sctp "Bytes received on stream 0 of assoc 29" 0
scalar MultiCell.eNodeB1.sctp "Bytes received on stream 1 of assoc 29" 0
scalar MultiCell.eNodeB1.sctp "Bytes received on stream 2 of assoc 29" 0
scalar MultiCell.eNodeB1.sctp "Bytes received on stream 3 of assoc 29" 0
scalar MultiCell.eNodeB1.sctp "Bytes received on stream 4 of assoc 29" 0
scalar MultiCell.eNodeB1.sctp "Bytes received on stream 5 of assoc 29" 0
scalar MultiCell.eNodeB1.sctp "Bytes received on stream 6 of assoc 29" 0
scalar MultiCell.eNodeB1.sctp "Bytes received on stream 7 of assoc 29" 0
scalar MultiCell.eNodeB1.sctp "Bytes received on stream 8 of assoc 29" 0
scalar MultiCell.eNodeB1.sctp "Bytes received on stream 9 of assoc 29" 0
scalar MultiCell.eNodeB1.sctp "Bytes received on stream 10 of assoc 29" 0
scalar MultiCell.eNodeB1.sctp "Bytes received on stream 11 of assoc 29" 0
scalar MultiCell.eNodeB1.sctp "Bytes received on stream 12 of assoc 29" 0
scalar MultiCell.eNodeB1.sctp "Bytes received on stream 13 of assoc 29" 0
scalar MultiCell.eNodeB1.sctp "Bytes received on stream 14 of assoc 29" 0
scalar MultiCell.eNodeB1.sctp "Bytes received on stream 15 of assoc 29" 0
scalar MultiCell.eNodeB1.sctp "Bytes received on stream 16 of assoc 29" 0
scalar MultiCell.eNodeB1.sctp "Blocking TSNs Moved" 0
scalar MultiCell.eNodeB1.sctp "Number of Fast Retransmissions 5:10.0.2.2" 0
scalar MultiCell.eNodeB1.sctp "Number of Timer-Based Retransmissions 5:10.0.2.2" 0
scalar MultiCell.eNodeB1.sctp "Number of Heartbeats Sent 5:10.0.2.2" 1
scalar MultiCell.eNodeB1.sctp "Number of Heartbeats Received 5:10.0.2.2" 0
scalar MultiCell.eNodeB1.sctp "Number of Heartbeat ACKs Sent 5:10.0.2.2" 0
scalar MultiCell.eNodeB1.sctp "Number of Heartbeat ACKs Received 5:10.0.2.2" 0
scalar MultiCell.eNodeB1.sctp "Number of Duplicates 5:10.0.2.2" 0
scalar MultiCell.eNodeB1.sctp "Number of Bytes received from 5:10.0.2.2" 0
scalar MultiCell.eNodeB1.sctp "Number of Fast Retransmissions 5:10.0.4.2" 0
scalar MultiCell.eNodeB1.sctp "Number of Timer-Based Retransmissions 5:10.0.4.2" 0
scalar MultiCell.eNodeB1.sctp "Number of Heartbeats Sent 5:10.0.4.2" 1
scalar MultiCell.eNodeB1.sctp "Number of Heartbeats Received 5:10.0.4.2" 0
scalar MultiCell.eNodeB1.sctp "Number of Heartbeat ACKs Sent 5:10.0.4.2" 0
scalar MultiCell.eNodeB1.sctp "Number of Heartbeat ACKs Received 5:10.0.4.2" 0
scalar MultiCell.eNodeB1.sctp "Number of Duplicates 5:10.0.4.2" 0
scalar MultiCell.eNodeB1.sctp "Number of Bytes received from 5:10.0.4.2" 0
scalar MultiCell.eNodeB1.sctp "Number of Fast Retransmissions 5:10.0.5.2" 0
scalar MultiCell.eNodeB1.sctp "Number of Timer-Based Retransmissions 5:10.0.5.2" 0
scalar MultiCell.eNodeB1.sctp "Number of Heartbeats Sent 5:10.0.5.2" 0
scalar MultiCell.eNodeB1.sctp "Number of Heartbeats Received 5:10.0.5.2" 3
scalar MultiCell.eNodeB1.sctp "Number of Heartbeat ACKs Sent 5:10.0.5.2" 3
scalar MultiCell.eNodeB1.sctp "Number of Heartbeat ACKs Received 5:10.0.5.2" 3
scalar MultiCell.eNodeB1.sctp "Number of Duplicates 5:10.0.5.2" 0
scalar MultiCell.eNodeB1.sctp "Number of Bytes received from 5:10.0.5.2" 30
scalar MultiCell.eNodeB1.sctp "Number of Fast Retransmissions 5:10.0.7.1" 0
scalar MultiCell.eNodeB1.sctp "Number of Timer-Based Retransmissions 5:10.0.7.1" 0
scalar MultiCell.eNodeB1.sctp "Number of Heartbeats Sent 5:10.0.7.1" 1
scalar MultiCell.eNodeB1.sctp "Number of Heartbeats Received 5:10.0.7.1" 0
scalar MultiCell.eNodeB1.sctp "Number of Heartbeat ACKs Sent 5:10.0.7.1" 0
scalar MultiCell.eNodeB1.sctp "Number of Heartbeat ACKs Received 5:10.0.7.1" 0
scalar MultiCell.eNodeB1.sctp "Number of Duplicates 5:10.0.7.1" 0
scalar MultiCell.eNodeB1.sctp "Number of Bytes received from 5:10.0.7.1" 0
scalar MultiCell.eNodeB1.sctp "Bytes received on stream 0 of assoc 5" 15
scalar MultiCell.eNodeB1.sctp "Blocking TSNs Moved" 0
scalar MultiCell.eNodeB1.sctp "Number of Fast Retransmissions 32:10.0.2.2" 0
scalar MultiCell.eNodeB1.sctp "Number of Timer-Based Retransmissions 32:10.0.2.2" 0
scalar MultiCell.eNodeB1.sctp "Number of Heartbeats Sent 32:10.0.2.2" 1
scalar MultiCell.eNodeB1.sctp "Number of Heartbeats Received 32:10.0.2.2" 0
scalar MultiCell.eNodeB1.sctp "Number of Heartbeat ACKs Sent 32:10.0.2.2" 0
scalar MultiCell.eNodeB1.sctp "Number of Heartbeat ACKs Received 32:10.0.2.2" 0
scalar MultiCell.eNodeB1.sctp "Number of Duplicates 32:10.0.2.2" 0
scalar MultiCell.eNodeB1.sctp "Number of Bytes received from 32:10.0.2.2" 0
scalar MultiCell.eNodeB1.sctp "Number of Fast Retransmissions 32:10.0.4.2" 0
scalar MultiCell.eNodeB1.sctp "Number of Timer-Based Retransmissions 32:10.0.4.2" 0
scalar MultiCell.eNodeB1.sctp "Number of Heartbeats Sent 32:10.0.4.2" 1
scalar MultiCell.eNodeB1.sctp "Number of Heartbeats Received 32:10.0.4.2" 0
scalar MultiCell.eNodeB1.sctp "Number of Heartbeat ACKs Sent 32:10.0.4.2" 0
scalar MultiCell.eNodeB1.sctp "Number of Heartbeat ACKs Received 32:10.0.4.2" 0
scalar MultiCell.eNodeB1.sctp "Number of Duplicates 32:10.0.4.2" 0
scalar MultiCell.eNodeB1.sctp "Number of Bytes received from 32:10.0.4.2" 0
scalar MultiCell.eNodeB1.sctp "Number of Fast Retransmissions 32:10.0.5.2" 0
scalar MultiCell.eNodeB1.sctp "Number of Timer-Based Retransmissions 32:10.0.5.2" 0
scalar MultiCell.eNodeB1.sctp "Number of Heartbeats Sent 32:10.0.5.2" 0
scalar MultiCell.eNodeB1.sctp "Number of Heartbeats Received 32:10.0.5.2" 3
scalar MultiCell.eNodeB1.sctp "Number of Heartbeat ACKs Sent 32:10.0.5.2" 3
scalar MultiCell.eNodeB1.sctp "Number of Heartbeat ACKs Received 32:10.0.5.2" 3
scalar MultiCell.eNodeB1.sctp "Number of Duplicates 32:10.0.5.2" 0
scalar MultiCell.eNodeB1.sctp "Number of Bytes received from 32:10.0.5.2" 0
scalar MultiCell.eNodeB1.sctp "Number of Fast Retransmissions 32:10.0.7.1" 0
scalar MultiCell.eNodeB1.sctp "Number of Timer-Based Retransmissions 32:10.0.7.1" 0
scalar MultiCell.eNodeB1.sctp "Number of Heartbeats Sent 32:10.0.7.1" 1
scalar MultiCell.eNodeB1.sctp "Number of Heartbeats Received 32:10.0.7.1" 0
scalar MultiCell.eNodeB1.sctp "Number of Heartbeat ACKs Sent 32:10.0.7.1" 0
scalar MultiCell.eNodeB1.sctp "Number of Heartbeat ACKs Received 32:10.0.7.1" 0
scalar MultiCell.eNodeB1.sctp "Number of Duplicates 32:10.0.7.1" 0
scalar MultiCell.eNodeB1.sctp "Number of Bytes received from 32:10.0.7.1" 0
scalar MultiCell.eNodeB1.sctp "Bytes received on stream 0 of assoc 32" 0
scalar MultiCell.eNodeB1.sctp "Blocking TSNs Moved" 0
scalar MultiCell.eNodeB1.sctp "Association Lifetime" 19.9999993128
scalar MultiCell.eNodeB1.sctp "Acked Bytes" 0
scalar MultiCell.eNodeB1.sctp "Throughput [bit/s]" 0
scalar MultiCell.eNodeB1.sctp "Transmitted Bytes" 0
scalar MultiCell.eNodeB1.sctp "Fast RTX" 0
scalar MultiCell.eNodeB1.sctp "Timer-Based RTX" 0
scalar MultiCell.eNodeB1.sctp "Duplicate Acks" 0
scalar MultiCell.eNodeB1.sctp "Packets Received" 20
scalar MultiCell.eNodeB1.sctp "Packets Dropped" 0
scalar MultiCell.eNodeB1.sctp "Sum of R Gap Ranges" 0
scalar MultiCell.eNodeB1.sctp "Sum of NR Gap Ranges" 0
scalar MultiCell.eNodeB1.sctp "Overfull SACKs" 0
scalar MultiCell.eNodeB1.sctp "Drops Because New TSN Greater Than Highest TSN" 0
scalar MultiCell.eNodeB1.sctp "Drops Because No Room In Buffer" 0
scalar MultiCell.eNodeB1.sctp "Chunks Reneged" 0
scalar MultiCell.eNodeB1.sctp sackPeriod 0.19999999999999998
scalar MultiCell.eNodeB1.sctp "Number of AUTH chunks sent" 0
scalar MultiCell.eNodeB1.sctp "Number of AUTH chunks accepted" 0
scalar MultiCell.eNodeB1.sctp "Number of AUTH chunks rejected" 0
scalar MultiCell.eNodeB1.sctp "Number of StreamReset requests sent" 0
scalar MultiCell.eNodeB1.sctp "Number of StreamReset requests performed" 0
scalar MultiCell.eNodeB1.sctp "Number of PacketDrop Reports" 0
scalar MultiCell.eNodeB1.sctp "Average End to End Delay" 2.1360000000000001e-08
scalar MultiCell.eNodeB1.sctp RTXMethod 0
scalar MultiCell.eNodeB1.sctp "Association Lifetime" 19.9999995292
scalar MultiCell.eNodeB1.sctp "Acked Bytes" 30
scalar MultiCell.eNodeB1.sctp "Throughput [bit/s]" 12.000000282480007
scalar MultiCell.eNodeB1.sctp "Transmitted Bytes" 30
scalar MultiCell.eNodeB1.sctp "Fast RTX" 0
scalar MultiCell.eNodeB1.sctp "Timer-Based RTX" 0
scalar MultiCell.eNodeB1.sctp "Duplicate Acks" 0
scalar MultiCell.eNodeB1.sctp "Packets Received" 20
scalar MultiCell.eNodeB1.sctp "Packets Dropped" 0
scalar MultiCell.eNodeB1.sctp "Sum of R Gap Ranges" 0
scalar MultiCell.eNodeB1.sctp "Sum of NR Gap Ranges" 0
scalar MultiCell.eNodeB1.sctp "Overfull SACKs" 0
scalar MultiCell.eNodeB1.sctp "Drops Because New TSN Greater Than Highest TSN" 0
scalar MultiCell.eNodeB1.sctp "Drops Because No Room In Buffer" 0
scalar MultiCell.eNodeB1.sctp "Chunks Reneged" 0
scalar MultiCell.eNodeB1.sctp sackPeriod 0.19999999999999998
scalar MultiCell.eNodeB1.sctp "Number of AUTH chunks sent" 0
scalar MultiCell.eNodeB1.sctp "Number of AUTH chunks accepted" 0
scalar MultiCell.eNodeB1.sctp "Number of AUTH chunks rejected" 0
scalar MultiCell.eNodeB1.sctp "Number of StreamReset requests sent" 0
scalar MultiCell.eNodeB1.sctp "Number of StreamReset requests performed" 0
scalar MultiCell.eNodeB1.sctp "Number of PacketDrop Reports" 0
scalar MultiCell.eNodeB1.sctp RTXMethod 0
scalar MultiCell.eNodeB2.cellularNic.pdcp sentPacketToLowerLayer:count 622
scalar MultiCell.eNodeB2.cellularNic.pdcp sentPacketToLowerLayer:sum(packetBytes) 42918
scalar MultiCell.eNodeB2.cellularNic.pdcp sentPacketToUpperLayer:count 0
scalar MultiCell.eNodeB2.cellularNic.pdcp sentPacketToUpperLayer:sum(packetBytes) 0
scalar MultiCell.eNodeB2.cellularNic.pdcp receivedPacketFromLowerLayer:count 0
scalar MultiCell.eNodeB2.cellularNic.pdcp receivedPacketFromLowerLayer:sum(packetBytes) 0
scalar MultiCell.eNodeB2.cellularNic.pdcp receivedPacketFromUpperLayer:count 622
scalar MultiCell.eNodeB2.cellularNic.pdcp receivedPacketFromUpperLayer:sum(packetBytes) 42296
scalar MultiCell.eNodeB2.cellularNic.rlc.tm rlcPacketLossUl:mean -nan
scalar MultiCell.eNodeB2.cellularNic.rlc.tm rlcPacketLossUl:sum 0
scalar MultiCell.eNodeB2.cellularNic.rlc.tm rlcPacketLossDl:mean -nan
scalar MultiCell.eNodeB2.cellularNic.rlc.tm rlcPacketLossDl:sum 0
scalar MultiCell.eNodeB2.cellularNic.rlc.tm sentPacketToLowerLayer:count 0
scalar MultiCell.eNodeB2.cellularNic.rlc.tm sentPacketToLowerLayer:sum(packetBytes) 0
scalar MultiCell.eNodeB2.cellularNic.rlc.tm sentPacketToUpperLayer:count 0
scalar MultiCell.eNodeB2.cellularNic.rlc.tm sentPacketToUpperLayer:sum(packetBytes) 0
scalar MultiCell.eNodeB2.cellularNic.rlc.tm receivedPacketFromLowerLayer:count 0
scalar MultiCell.eNodeB2.cellularNic.rlc.tm receivedPacketFromLowerLayer:sum(packetBytes) 0
scalar MultiCell.eNodeB2.cellularNic.rlc.tm receivedPacketFromUpperLayer:count 0
scalar MultiCell.eNodeB2.cellularNic.rlc.tm receivedPacketFromUpperLayer:sum(packetBytes) 0
scalar MultiCell.eNodeB2.cellularNic.rlc.um rlcPacketLossTotal:mean -nan
scalar MultiCell.eNodeB2.cellularNic.rlc.um rlcCellThroughputUl:mean -nan
scalar MultiCell.eNodeB2.cellularNic.rlc.um rlcCellThroughputDl:mean 2764.6338411299694
scalar MultiCell.eNodeB2.cellularNic.rlc.um rlcPduThroughputUl:mean -nan
scalar MultiCell.eNodeB2.cellularNic.rlc.um rlcPduThroughputDl:mean -nan
scalar MultiCell.eNodeB2.cellularNic.rlc.um rlcPduDelayUl:mean -nan
scalar MultiCell.eNodeB2.cellularNic.rlc.um rlcPduDelayDl:mean -nan
scalar MultiCell.eNodeB2.cellularNic.rlc.um rlcThroughputUl:mean -nan
scalar MultiCell.eNodeB2.cellularNic.rlc.um rlcThroughputDl:mean -nan
scalar MultiCell.eNodeB2.cellularNic.rlc.um rlcDelayUl:mean -nan
scalar MultiCell.eNodeB2.cellularNic.rlc.um rlcDelayDl:mean -nan
scalar MultiCell.eNodeB2.cellularNic.rlc.um rlcPduPacketLossUl:mean -nan
scalar MultiCell.eNodeB2.cellularNic.rlc.um rlcPduPacketLossDl:mean -nan
scalar MultiCell.eNodeB2.cellularNic.rlc.um rlcPacketLossUl:mean -nan
scalar MultiCell.eNodeB2.cellularNic.rlc.um rlcPacketLossUl:sum 0
scalar MultiCell.eNodeB2.cellularNic.rlc.um rlcPacketLossDl:mean -nan
scalar MultiCell.eNodeB2.cellularNic.rlc.um rlcPacketLossDl:sum 0
scalar MultiCell.eNodeB2.cellularNic.rlc.um rlcCellPacketLossUl:mean -nan
scalar MultiCell.eNodeB2.cellularNic.rlc.um rlcCellPacketLossDl:mean 0
scalar MultiCell.eNodeB2.cellularNic.rlc.um sentPacketToLowerLayer:count 620
scalar MultiCell.eNodeB2.cellularNic.rlc.um sentPacketToLowerLayer:sum(packetBytes) 44158
scalar MultiCell.eNodeB2.cellularNic.rlc.um sentPacketToUpperLayer:count 0
scalar MultiCell.eNodeB2.cellularNic.rlc.um sentPacketToUpperLayer:sum(packetBytes) 0
scalar MultiCell.eNodeB2.cellularNic.rlc.um receivedPacketFromLowerLayer:count 0
scalar MultiCell.eNodeB2.cellularNic.rlc.um receivedPacketFromLowerLayer:sum(packetBytes) 0
scalar MultiCell.eNodeB2.cellularNic.rlc.um receivedPacketFromUpperLayer:count 622
scalar MultiCell.eNodeB2.cellularNic.rlc.um receivedPacketFromUpperLayer:sum(packetBytes) 42918
scalar MultiCell.eNodeB2.cellularNic.rlc.am rlcPacketLossTotal:mean -nan
scalar MultiCell.eNodeB2.cellularNic.rlc.am rlcCellThroughputUl:mean -nan
scalar MultiCell.eNodeB2.cellularNic.rlc.am rlcCellThroughputDl:mean -nan
scalar MultiCell.eNodeB2.cellularNic.rlc.am rlcPduThroughputUl:mean -nan
scalar MultiCell.eNodeB2.cellularNic.rlc.am rlcPduThroughputDl:mean -nan
scalar MultiCell.eNodeB2.cellularNic.rlc.am rlcPduDelayUl:mean -nan
scalar MultiCell.eNodeB2.cellularNic.rlc.am rlcPduDelayDl:mean -nan
scalar MultiCell.eNodeB2.cellularNic.rlc.am rlcThroughputUl:mean -nan
scalar MultiCell.eNodeB2.cellularNic.rlc.am rlcThroughputDl:mean -nan
scalar MultiCell.eNodeB2.cellularNic.rlc.am rlcDelayUl:mean -nan
scalar MultiCell.eNodeB2.cellularNic.rlc.am rlcDelayDl:mean -nan
scalar MultiCell.eNodeB2.cellularNic.rlc.am rlcPduPacketLossUl:mean -nan
scalar MultiCell.eNodeB2.cellularNic.rlc.am rlcPduPacketLossDl:mean -nan
scalar MultiCell.eNodeB2.cellularNic.rlc.am rlcPacketLossUl:mean -nan
scalar MultiCell.eNodeB2.cellularNic.rlc.am rlcPacketLossDl:mean -nan
scalar MultiCell.eNodeB2.cellularNic.rlc.am rlcCellPacketLossUl:mean -nan
scalar MultiCell.eNodeB2.cellularNic.rlc.am rlcCellPacketLossDl:mean -nan
scalar MultiCell.eNodeB2.cellularNic.mac avgServedBlocksUl:mean 0
scalar MultiCell.eNodeB2.cellularNic.mac avgServedBlocksDl:mean 0.031099999999999999
scalar MultiCell.eNodeB2.cellularNic.mac harqTxAttemptsUl:mean -nan
scalar MultiCell.eNodeB2.cellularNic.mac harqTxAttemptsDl:mean -nan
scalar MultiCell.eNodeB2.cellularNic.mac harqErrorRate_4th_Ul:mean -nan
scalar MultiCell.eNodeB2.cellularNic.mac harqErrorRate_4th_Dl:mean -nan
scalar MultiCell.eNodeB2.cellularNic.mac harqErrorRate_3rd_Ul:mean -nan
scalar MultiCell.eNodeB2.cellularNic.mac harqErrorRate_3rd_Dl:mean -nan
scalar MultiCell.eNodeB2.cellularNic.mac harqErrorRate_2nd_Ul:mean -nan
scalar MultiCell.eNodeB2.cellularNic.mac harqErrorRate_2nd_Dl:mean -nan
scalar MultiCell.eNodeB2.cellularNic.mac harqErrorRate_1st_Ul:mean -nan
scalar MultiCell.eNodeB2.cellularNic.mac harqErrorRate_1st_Dl:mean -nan
scalar MultiCell.eNodeB2.cellularNic.mac harqErrorRateUl:mean -nan
scalar MultiCell.eNodeB2.cellularNic.mac harqErrorRateDl:mean -nan
scalar MultiCell.eNodeB2.cellularNic.mac macCellPacketLossUl:mean -nan
scalar MultiCell.eNodeB2.cellularNic.mac macCellPacketLossDl:mean 0
scalar MultiCell.eNodeB2.cellularNic.mac macPacketLossUl:mean -nan
scalar MultiCell.eNodeB2.cellularNic.mac macPacketLossDl:mean -nan
scalar MultiCell.eNodeB2.cellularNic.mac macThroughputUl:mean -nan
scalar MultiCell.eNodeB2.cellularNic.mac macThroughputDl:mean -nan
scalar MultiCell.eNodeB2.cellularNic.mac macDelayUl:mean -nan
scalar MultiCell.eNodeB2.cellularNic.mac macDelayDl:mean -nan
scalar MultiCell.eNodeB2.cellularNic.mac macCellThroughputUl:mean -nan
scalar MultiCell.eNodeB2.cellularNic.mac macCellThroughputDl:mean 2923.8830365837362
scalar MultiCell.eNodeB2.cellularNic.mac sentPacketToLowerLayer:count 620
scalar MultiCell.eNodeB2.cellularNic.mac sentPacketToLowerLayer:sum(packetBytes) 45398
scalar MultiCell.eNodeB2.cellularNic.mac sentPacketToUpperLayer:count 620
scalar MultiCell.eNodeB2.cellularNic.mac sentPacketToUpperLayer:sum(packetBytes) 620
scalar MultiCell.eNodeB2.cellularNic.mac receivedPacketFromLowerLayer:count 12771
scalar MultiCell.eNodeB2.cellularNic.mac receivedPacketFromLowerLayer:sum(packetBytes) 12771
scalar MultiCell.eNodeB2.cellularNic.mac receivedPacketFromUpperLayer:count 1242
scalar MultiCell.eNodeB2.cellularNic.mac receivedPacketFromUpperLayer:sum(packetBytes) 88320
scalar MultiCell.eNodeB2.cellularNic.mac macBufferOverFlowD2D:mean -nan
scalar MultiCell.eNodeB2.cellularNic.mac macBufferOverFlowUl:mean -nan
scalar MultiCell.eNodeB2.cellularNic.mac macBufferOverFlowDl:mean -nan
scalar MultiCell.eNodeB2.cellularNic.channelModel[0] measuredSinrUl:mean -nan
scalar MultiCell.eNodeB2.cellularNic.channelModel[0] measuredSinrDl:mean -nan
scalar MultiCell.eNodeB2.cellularNic.channelModel[0] rcvdSinrD2D:mean -nan
scalar MultiCell.eNodeB2.cellularNic.channelModel[0] rcvdSinrUl:mean -nan
scalar MultiCell.eNodeB2.cellularNic.channelModel[0] rcvdSinrDl:mean -nan
scalar MultiCell.eNodeB2.cellularNic packetDropInterfaceDown:count 0
scalar MultiCell.eNodeB2.cellularNic packetDropInterfaceDown:sum(packetBytes) 0
scalar MultiCell.eNodeB2.cellularNic packetDropNoCarrier:count 0
scalar MultiCell.eNodeB2.cellularNic packetDropNoCarrier:sum(packetBytes) 0
scalar MultiCell.eNodeB2.pppIf.queue queueLength:last 0
scalar MultiCell.eNodeB2.pppIf.queue queueLength:max 0
scalar MultiCell.eNodeB2.pppIf.queue queueLength:timeavg 0
scalar MultiCell.eNodeB2.pppIf.queue queueBitLength:last 0
scalar MultiCell.eNodeB2.pppIf.queue queueBitLength:max 0
scalar MultiCell.eNodeB2.pppIf.queue queueBitLength:timeavg 0
scalar MultiCell.eNodeB2.pppIf.queue outgoingPackets:count 0
scalar MultiCell.eNodeB2.pppIf.queue outgoingPacketLengths:sum 0
scalar MultiCell.eNodeB2.pppIf.queue incomingPackets:count 0
scalar MultiCell.eNodeB2.pppIf.queue incomingPacketLengths:sum 0
scalar MultiCell.eNodeB2.pppIf.queue droppedPacketsQueueOverflow:count 0
scalar MultiCell.eNodeB2.pppIf.queue droppedPacketLengthsQueueOverflow:sum 0
scalar MultiCell.eNodeB2.pppIf.ppp transmissionState:timeavg 0
scalar MultiCell.eNodeB2.pppIf.ppp rxPkOk:count 620
scalar MultiCell.eNodeB2.pppIf.ppp rxPkOk:sum(packetBytes) 68820
scalar MultiCell.eNodeB2.pppIf.ppp txPk:count 0
scalar MultiCell.eNodeB2.pppIf.ppp txPk:sum(packetBytes) 0
scalar MultiCell.eNodeB2.pppIf.ppp rcvdPkFromHl:count 0
scalar MultiCell.eNodeB2.pppIf.ppp rcvdPkFromHl:sum(packetBytes) 0
scalar MultiCell.eNodeB2.pppIf.ppp passedUpPk:count 620
scalar MultiCell.eNodeB2.pppIf.ppp passedUpPk:sum(packetBytes) 64480
scalar MultiCell.eNodeB2.pppIf.ppp packetDropIncorrectlyReceived:count 0
scalar MultiCell.eNodeB2.pppIf.ppp packetDropIncorrectlyReceived:sum(packetBytes) 0
scalar MultiCell.eNodeB2.pppIf.ppp packetDropInterfaceDown:count 0
scalar MultiCell.eNodeB2.pppIf.ppp packetDropInterfaceDown:sum(packetBytes) 0
scalar MultiCell.eNodeB2.pppIf packetDropInterfaceDown:count 0
scalar MultiCell.eNodeB2.pppIf packetDropInterfaceDown:sum(packetBytes) 0
scalar MultiCell.eNodeB2.pppIf packetDropNoCarrier:count 0
scalar MultiCell.eNodeB2.pppIf packetDropNoCarrier:sum(packetBytes) 0
scalar MultiCell.eNodeB2.x2ppp[0].queue queueLength:last 0
scalar MultiCell.eNodeB2.x2ppp[0].queue queueLength:max 4
scalar MultiCell.eNodeB2.x2ppp[0].queue queueLength:timeavg 4.8659999999999994e-08
scalar MultiCell.eNodeB2.x2ppp[0].queue queueBitLength:last 0
scalar MultiCell.eNodeB2.x2ppp[0].queue queueBitLength:max 1536
scalar MultiCell.eNodeB2.x2ppp[0].queue queueBitLength:timeavg 1.8051840000000002e-05
scalar MultiCell.eNodeB2.x2ppp[0].queue outgoingPackets:count 20
scalar MultiCell.eNodeB2.x2ppp[0].queue outgoingPacketLengths:sum 9728
scalar MultiCell.eNodeB2.x2ppp[0].queue incomingPackets:count 20
scalar MultiCell.eNodeB2.x2ppp[0].queue incomingPacketLengths:sum 9728
scalar MultiCell.eNodeB2.x2ppp[0].queue droppedPacketsQueueOverflow:count 0
scalar MultiCell.eNodeB2.x2ppp[0].queue droppedPacketLengthsQueueOverflow:sum 0
scalar MultiCell.eNodeB2.x2ppp[0].ppp transmissionState:timeavg 5.4240000000000008e-08
scalar MultiCell.eNodeB2.x2ppp[0].ppp rxPkOk:count 22
scalar MultiCell.eNodeB2.x2ppp[0].ppp rxPkOk:sum(packetBytes) 1586
scalar MultiCell.eNodeB2.x2ppp[0].ppp txPk:count 20
scalar MultiCell.eNodeB2.x2ppp[0].ppp txPk:sum(packetBytes) 1356
scalar MultiCell.eNodeB2.x2ppp[0].ppp rcvdPkFromHl:count 20
scalar MultiCell.eNodeB2.x2ppp[0].ppp rcvdPkFromHl:sum(packetBytes) 1216
scalar MultiCell.eNodeB2.x2ppp[0].ppp passedUpPk:count 22
scalar MultiCell.eNodeB2.x2ppp[0].ppp passedUpPk:sum(packetBytes) 1432
scalar MultiCell.eNodeB2.x2ppp[0].ppp packetDropIncorrectlyReceived:count 0
scalar MultiCell.eNodeB2.x2ppp[0].ppp packetDropIncorrectlyReceived:sum(packetBytes) 0
scalar MultiCell.eNodeB2.x2ppp[0].ppp packetDropInterfaceDown:count 0
scalar MultiCell.eNodeB2.x2ppp[0].ppp packetDropInterfaceDown:sum(packetBytes) 0
scalar MultiCell.eNodeB2.x2ppp[0] packetDropInterfaceDown:count 0
scalar MultiCell.eNodeB2.x2ppp[0] packetDropInterfaceDown:sum(packetBytes) 0
scalar MultiCell.eNodeB2.x2ppp[0] packetDropNoCarrier:count 0
scalar MultiCell.eNodeB2.x2ppp[0] packetDropNoCarrier:sum(packetBytes) 0
scalar MultiCell.eNodeB2.pppMEHostIf.queue queueLength:last 0
scalar MultiCell.eNodeB2.pppMEHostIf.queue queueLength:max 0
scalar MultiCell.eNodeB2.pppMEHostIf.queue queueLength:timeavg 0
scalar MultiCell.eNodeB2.pppMEHostIf.queue queueBitLength:last 0
scalar MultiCell.eNodeB2.pppMEHostIf.queue queueBitLength:max 0
scalar MultiCell.eNodeB2.pppMEHostIf.queue queueBitLength:timeavg 0
scalar MultiCell.eNodeB2.pppMEHostIf.queue outgoingPackets:count 0
scalar MultiCell.eNodeB2.pppMEHostIf.queue outgoingPacketLengths:sum 0
scalar MultiCell.eNodeB2.pppMEHostIf.queue incomingPackets:count 0
scalar MultiCell.eNodeB2.pppMEHostIf.queue incomingPacketLengths:sum 0
scalar MultiCell.eNodeB2.pppMEHostIf.queue droppedPacketsQueueOverflow:count 0
scalar MultiCell.eNodeB2.pppMEHostIf.queue droppedPacketLengthsQueueOverflow:sum 0
scalar MultiCell.eNodeB2.pppMEHostIf.ppp transmissionState:timeavg 0
scalar MultiCell.eNodeB2.pppMEHostIf.ppp rxPkOk:count 0
scalar MultiCell.eNodeB2.pppMEHostIf.ppp rxPkOk:sum(packetBytes) 0
scalar MultiCell.eNodeB2.pppMEHostIf.ppp txPk:count 0
scalar MultiCell.eNodeB2.pppMEHostIf.ppp txPk:sum(packetBytes) 0
scalar MultiCell.eNodeB2.pppMEHostIf.ppp rcvdPkFromHl:count 0
scalar MultiCell.eNodeB2.pppMEHostIf.ppp rcvdPkFromHl:sum(packetBytes) 0
scalar MultiCell.eNodeB2.pppMEHostIf.ppp passedUpPk:count 0
scalar MultiCell.eNodeB2.pppMEHostIf.ppp passedUpPk:sum(packetBytes) 0
scalar MultiCell.eNodeB2.pppMEHostIf.ppp packetDropIncorrectlyReceived:count 0
scalar MultiCell.eNodeB2.pppMEHostIf.ppp packetDropIncorrectlyReceived:sum(packetBytes) 0
scalar MultiCell.eNodeB2.pppMEHostIf.ppp packetDropInterfaceDown:count 0
scalar MultiCell.eNodeB2.pppMEHostIf.ppp packetDropInterfaceDown:sum(packetBytes) 0
scalar MultiCell.eNodeB2.pppMEHostIf packetDropInterfaceDown:count 0
scalar MultiCell.eNodeB2.pppMEHostIf packetDropInterfaceDown:sum(packetBytes) 0
scalar MultiCell.eNodeB2.pppMEHostIf packetDropNoCarrier:count 0
scalar MultiCell.eNodeB2.pppMEHostIf packetDropNoCarrier:sum(packetBytes) 0
scalar MultiCell.eNodeB2.ipv4.ip packetDropAddressResolutionFailed:count 0
scalar MultiCell.eNodeB2.ipv4.ip packetDropAddressResolutionFailed:sum(packetBytes) 0
scalar MultiCell.eNodeB2.ipv4.ip packetDropHopLimitReached:count 0
scalar MultiCell.eNodeB2.ipv4.ip packetDropHopLimitReached:sum(packetBytes) 0
scalar MultiCell.eNodeB2.ipv4.ip packetDropForwardingDisabled:count 0
scalar MultiCell.eNodeB2.ipv4.ip packetDropForwardingDisabled:sum(packetBytes) 0
scalar MultiCell.eNodeB2.ipv4.ip packetDropNoInterfaceFound:count 0
scalar MultiCell.eNodeB2.ipv4.ip packetDropNoInterfaceFound:sum(packetBytes) 0
scalar MultiCell.eNodeB2.ipv4.ip packetDropNoRouteFound:count 0
scalar MultiCell.eNodeB2.ipv4.ip packetDropNoRouteFound:sum(packetBytes) 0
scalar MultiCell.eNodeB2.ipv4.ip packetDropUndefined:count 0
scalar MultiCell.eNodeB2.ipv4.ip packetDropUndefined:sum(packetBytes) 0
scalar MultiCell.eNodeB2.ipv4.arp arpResolutionFailed:count 0
scalar MultiCell.eNodeB2.ipv4.arp arpResolutionCompleted:count 0
scalar MultiCell.eNodeB2.ipv4.arp arpResolutionInitiated:count 0
scalar MultiCell.eNodeB2.ipv4.arp arpReplySent:count 0
scalar MultiCell.eNodeB2.ipv4.arp arpReplySent:sum(packetBytes) 0
scalar MultiCell.eNodeB2.ipv4.arp arpRequestSent:count 0
scalar MultiCell.eNodeB2.ipv4.arp arpRequestSent:sum(packetBytes) 0
scalar MultiCell.eNodeB2.udp packetReceived:count 622
scalar MultiCell.eNodeB2.udp packetReceived:sum(packetBytes) 52256
scalar MultiCell.eNodeB2.udp packetSent:count 0
scalar MultiCell.eNodeB2.udp packetSent:sum(packetBytes) 0
scalar MultiCell.eNodeB2.udp passedUpPk:count 622
scalar MultiCell.eNodeB2.udp droppedPkWrongPort:count 0
scalar MultiCell.eNodeB2.udp droppedPkBadChecksum:count 0
scalar MultiCell.eNodeB2.x2App[0].client packetReceived:count 2
scalar MultiCell.eNodeB2.x2App[0].client packetReceived:sum(packetBytes) 30
scalar MultiCell.eNodeB2.x2App[0].client packetSent:count 0
scalar MultiCell.eNodeB2.x2App[0].client packetSent:sum(packetBytes) 0
scalar MultiCell.eNodeB2.x2App[0].client echoedPk:count 0
scalar MultiCell.eNodeB2.x2App[0].client echoedPk:sum(packetBytes) 0
scalar MultiCell.eNodeB2.x2App[0].server "bytes rcvd" 0
scalar MultiCell.eNodeB2.x2App[0].server throughput -nan
scalar MultiCell.eNodeB2.sctp "Bytes received on stream 0 of assoc 30" 0
scalar MultiCell.eNodeB2.sctp "Bytes received on stream 1 of assoc 30" 0
scalar MultiCell.eNodeB2.sctp "Bytes received on stream 2 of assoc 30" 0
scalar MultiCell.eNodeB2.sctp "Bytes received on stream 3 of assoc 30" 0
scalar MultiCell.eNodeB2.sctp "Bytes received on stream 4 of assoc 30" 0
scalar MultiCell.eNodeB2.sctp "Bytes received on stream 5 of assoc 30" 0
scalar MultiCell.eNodeB2.sctp "Bytes received on stream 6 of assoc 30" 0
scalar MultiCell.eNodeB2.sctp "Bytes received on stream 7 of assoc 30" 0
scalar MultiCell.eNodeB2.sctp "Bytes received on stream 8 of assoc 30" 0
scalar MultiCell.eNodeB2.sctp "Bytes received on stream 9 of assoc 30" 0
scalar MultiCell.eNodeB2.sctp "Bytes received on stream 10 of assoc 30" 0
scalar MultiCell.eNodeB2.sctp "Bytes received on stream 11 of assoc 30" 0
scalar MultiCell.eNodeB2.sctp "Bytes received on stream 12 of assoc 30" 0
scalar MultiCell.eNodeB2.sctp "Bytes received on stream 13 of assoc 30" 0
scalar MultiCell.eNodeB2.sctp "Bytes received on stream 14 of assoc 30" 0
scalar MultiCell.eNodeB2.sctp "Bytes received on stream 15 of assoc 30" 0
scalar MultiCell.eNodeB2.sctp "Bytes received on stream 16 of assoc 30" 0
scalar MultiCell.eNodeB2.sctp "Blocking TSNs Moved" 0
scalar MultiCell.eNodeB2.sctp "Number of Fast Retransmissions 9:10.0.1.2" 0
scalar MultiCell.eNodeB2.sctp "Number of Timer-Based Retransmissions 9:10.0.1.2" 0
scalar MultiCell.eNodeB2.sctp "Number of Heartbeats Sent 9:10.0.1.2" 1
scalar MultiCell.eNodeB2.sctp "Number of Heartbeats Received 9:10.0.1.2" 0
scalar MultiCell.eNodeB2.sctp "Number of Heartbeat ACKs Sent 9:10.0.1.2" 0
scalar MultiCell.eNodeB2.sctp "Number of Heartbeat ACKs Received 9:10.0.1.2" 0
scalar MultiCell.eNodeB2.sctp "Number of Duplicates 9:10.0.1.2" 0
scalar MultiCell.eNodeB2.sctp "Number of Bytes received from 9:10.0.1.2" 0
scalar MultiCell.eNodeB2.sctp "Number of Fast Retransmissions 9:10.0.4.1" 0
scalar MultiCell.eNodeB2.sctp "Number of Timer-Based Retransmissions 9:10.0.4.1" 0
scalar MultiCell.eNodeB2.sctp "Number of Heartbeats Sent 9:10.0.4.1" 1
scalar MultiCell.eNodeB2.sctp "Number of Heartbeats Received 9:10.0.4.1" 0
scalar MultiCell.eNodeB2.sctp "Number of Heartbeat ACKs Sent 9:10.0.4.1" 0
scalar MultiCell.eNodeB2.sctp "Number of Heartbeat ACKs Received 9:10.0.4.1" 0
scalar MultiCell.eNodeB2.sctp "Number of Duplicates 9:10.0.4.1" 0
scalar MultiCell.eNodeB2.sctp "Number of Bytes received from 9:10.0.4.1" 0
scalar MultiCell.eNodeB2.sctp "Number of Fast Retransmissions 9:10.0.5.1" 0
scalar MultiCell.eNodeB2.sctp "Number of Timer-Based Retransmissions 9:10.0.5.1" 0
scalar MultiCell.eNodeB2.sctp "Number of Heartbeats Sent 9:10.0.5.1" 0
scalar MultiCell.eNodeB2.sctp "Number of Heartbeats Received 9:10.0.5.1" 3
scalar MultiCell.eNodeB2.sctp "Number of Heartbeat ACKs Sent 9:10.0.5.1" 3
scalar MultiCell.eNodeB2.sctp "Number of Heartbeat ACKs Received 9:10.0.5.1" 3
scalar MultiCell.eNodeB2.sctp "Number of Duplicates 9:10.0.5.1" 0
scalar MultiCell.eNodeB2.sctp "Number of Bytes received from 9:10.0.5.1" 30
scalar MultiCell.eNodeB2.sctp "Number of Fast Retransmissions 9:10.0.6.1" 0
scalar MultiCell.eNodeB2.sctp "Number of Timer-Based Retransmissions 9:10.0.6.1" 0
scalar MultiCell.eNodeB2.sctp "Number of Heartbeats Sent 9:10.0.6.1" 1
scalar MultiCell.eNodeB2.sctp "Number of Heartbeats Received 9:10.0.6.1" 0
scalar MultiCell.eNodeB2.sctp "Number of Heartbeat ACKs Sent 9:10.0.6.1" 0
scalar MultiCell.eNodeB2.sctp "Number of Heartbeat ACKs Received 9:10.0.6.1" 0
scalar MultiCell.eNodeB2.sctp "Number of Duplicates 9:10.0.6.1" 0
scalar MultiCell.eNodeB2.sctp "Number of Bytes received from 9:10.0.6.1" 0
scalar MultiCell.eNodeB2.sctp "Bytes received on stream 0 of assoc 9" 15
scalar MultiCell.eNodeB2.sctp "Blocking TSNs Moved" 0
scalar MultiCell.eNodeB2.sctp "Number of Fast Retransmissions 31:10.0.1.2" 0
scalar MultiCell.eNodeB2.sctp "Number of Timer-Based Retransmissions 31:10.0.1.2" 0
scalar MultiCell.eNodeB2.sctp "Number of Heartbeats Sent 31:10.0.1.2" 1
scalar MultiCell.eNodeB2.sctp "Number of Heartbeats Received 31:10.0.1.2" 0
scalar MultiCell.eNodeB2.sctp "Number of Heartbeat ACKs Sent 31:10.0.1.2" 0
scalar MultiCell.eNodeB2.sctp "Number of Heartbeat ACKs Received 31:10.0.1.2" 0
scalar MultiCell.eNodeB2.sctp "Number of Duplicates 31:10.0.1.2" 0
scalar MultiCell.eNodeB2.sctp "Number of Bytes received from 31:10.0.1.2" 0
scalar MultiCell.eNodeB2.sctp "Number of Fast Retransmissions 31:10.0.4.1" 0
scalar MultiCell.eNodeB2.sctp "Number of Timer-Based Retransmissions 31:10.0.4.1" 0
scalar MultiCell.eNodeB2.sctp "Number of Heartbeats Sent 31:10.0.4.1" 1
scalar MultiCell.eNodeB2.sctp "Number of Heartbeats Received 31:10.0.4.1" 0
scalar MultiCell.eNodeB2.sctp "Number of Heartbeat ACKs Sent 31:10.0.4.1" 0
scalar MultiCell.eNodeB2.sctp "Number of Heartbeat ACKs Received 31:10.0.4.1" 0
scalar MultiCell.eNodeB2.sctp "Number of Duplicates 31:10.0.4.1" 0
scalar MultiCell.eNodeB2.sctp "Number of Bytes received from 31:10.0.4.1" 0
scalar MultiCell.eNodeB2.sctp "Number of Fast Retransmissions 31:10.0.5.1" 0
scalar MultiCell.eNodeB2.sctp "Number of Timer-Based Retransmissions 31:10.0.5.1" 0
scalar MultiCell.eNodeB2.sctp "Number of Heartbeats Sent 31:10.0.5.1" 0
scalar MultiCell.eNodeB2.sctp "Number of Heartbeats Received 31:10.0.5.1" 3
scalar MultiCell.eNodeB2.sctp "Number of Heartbeat ACKs Sent 31:10.0.5.1" 3
scalar MultiCell.eNodeB2.sctp "Number of Heartbeat ACKs Received 31:10.0.5.1" 3
scalar MultiCell.eNodeB2.sctp "Number of Duplicates 31:10.0.5.1" 0
scalar MultiCell.eNodeB2.sctp "Number of Bytes received from 31:10.0.5.1" 0
scalar MultiCell.eNodeB2.sctp "Number of Fast Retransmissions 31:10.0.6.1" 0
scalar MultiCell.eNodeB2.sctp "Number of Timer-Based Retransmissions 31:10.0.6.1" 0
scalar MultiCell.eNodeB2.sctp "Number of Heartbeats Sent 31:10.0.6.1" 1
scalar MultiCell.eNodeB2.sctp "Number of Heartbeats Received 31:10.0.6.1" 0
scalar MultiCell.eNodeB2.sctp "Number of Heartbeat ACKs Sent 31:10.0.6.1" 0
scalar MultiCell.eNodeB2.sctp "Number of Heartbeat ACKs Received 31:10.0.6.1" 0
scalar MultiCell.eNodeB2.sctp "Number of Duplicates 31:10.0.6.1" 0
scalar MultiCell.eNodeB2.sctp "Number of Bytes received from 31:10.0.6.1" 0
scalar MultiCell.eNodeB2.sctp "Bytes received on stream 0 of assoc 31" 0
scalar MultiCell.eNodeB2.sctp "Blocking TSNs Moved" 0
scalar MultiCell.eNodeB2.sctp "Association Lifetime" 19.9999993128
scalar MultiCell.eNodeB2.sctp "Acked Bytes" 0
scalar MultiCell.eNodeB2.sctp "Throughput [bit/s]" 0
scalar MultiCell.eNodeB2.sctp "Transmitted Bytes" 0
scalar MultiCell.eNodeB2.sctp "Fast RTX" 0
scalar MultiCell.eNodeB2.sctp "Timer-Based RTX" 0
scalar MultiCell.eNodeB2.sctp "Duplicate Acks" 0
scalar MultiCell.eNodeB2.sctp "Packets Received" 20
scalar MultiCell.eNodeB2.sctp "Packets Dropped" 0
scalar MultiCell.eNodeB2.sctp "Sum of R Gap Ranges" 0
scalar MultiCell.eNodeB2.sctp "Sum of NR Gap Ranges" 0
scalar MultiCell.eNodeB2.sctp "Overfull SACKs" 0
scalar MultiCell.eNodeB2.sctp "Drops Because New TSN Greater Than Highest TSN" 0
scalar MultiCell.eNodeB2.sctp "Drops Because No Room In Buffer" 0
scalar MultiCell.eNodeB2.sctp "Chunks Reneged" 0
scalar MultiCell.eNodeB2.sctp sackPeriod 0.19999999999999998
scalar MultiCell.eNodeB2.sctp "Number of AUTH chunks sent" 0
scalar MultiCell.eNodeB2.sctp "Number of AUTH chunks accepted" 0
scalar MultiCell.eNodeB2.sctp "Number of AUTH chunks rejected" 0
scalar MultiCell.eNodeB2.sctp "Number of StreamReset requests sent" 0
scalar MultiCell.eNodeB2.sctp "Number of StreamReset requests performed" 0
scalar MultiCell.eNodeB2.sctp "Number of PacketDrop Reports" 0
scalar MultiCell.eNodeB2.sctp "Average End to End Delay" 2.1360000000000001e-08
scalar MultiCell.eNodeB2.sctp RTXMethod 0
scalar MultiCell.eNodeB2.sctp "Association Lifetime" 19.9999995292
scalar MultiCell.eNodeB2.sctp "Acked Bytes" 30
scalar MultiCell.eNodeB2.sctp "Throughput [bit/s]" 12.000000282480007
scalar MultiCell.eNodeB2.sctp "Transmitted Bytes" 30
scalar MultiCell.eNodeB2.sctp "Fast RTX" 0
scalar MultiCell.eNodeB2.sctp "Timer-Based RTX" 0
scalar MultiCell.eNodeB2.sctp "Duplicate Acks" 0
scalar MultiCell.eNodeB2.sctp "Packets Received" 20
scalar MultiCell.eNodeB2.sctp "Packets Dropped" 0
scalar MultiCell.eNodeB2.sctp "Sum of R Gap Ranges" 0
scalar MultiCell.eNodeB2.sctp "Sum of NR Gap Ranges" 0
scalar MultiCell.eNodeB2.sctp "Overfull SACKs" 0
scalar MultiCell.eNodeB2.sctp "Drops Because New TSN Greater Than Highest TSN" 0
scalar MultiCell.eNodeB2.sctp "Drops Because No Room In Buffer" 0
scalar MultiCell.eNodeB2.sctp "Chunks Reneged" 0
scalar MultiCell.eNodeB2.sctp sackPeriod 0.19999999999999998
scalar MultiCell.eNodeB2.sctp "Number of AUTH chunks sent" 0
scalar MultiCell.eNodeB2.sctp "Number of AUTH chunks accepted" 0
scalar MultiCell.eNodeB2.sctp "Number of AUTH chunks rejected" 0
scalar MultiCell.eNodeB2.sctp "Number of StreamReset requests sent" 0
scalar MultiCell.eNodeB2.sctp "Number of StreamReset requests performed" 0
scalar MultiCell.eNodeB2.sctp "Number of PacketDrop Reports" 0
scalar MultiCell.eNodeB2.sctp RTXMethod 0
scalar MultiCell.ue11.lo[0].lo rcvdPkFromHl:count 0
scalar MultiCell.ue11.lo[0].lo rcvdPkFromHl:sum(packetBytes) 0
scalar MultiCell.ue11.lo[0].lo passedUpPk:count 0
scalar MultiCell.ue11.lo[0].lo passedUpPk:sum(packetBytes) 0
scalar MultiCell.ue11.lo[0] packetDropInterfaceDown:count 0
scalar MultiCell.ue11.lo[0] packetDropInterfaceDown:sum(packetBytes) 0
scalar MultiCell.ue11.lo[0] packetDropNoCarrier:count 0
scalar MultiCell.ue11.lo[0] packetDropNoCarrier:sum(packetBytes) 0
scalar MultiCell.ue11.cellularNic.pdcp sentPacketToLowerLayer:count 0
scalar MultiCell.ue11.cellularNic.pdcp sentPacketToLowerLayer:sum(packetBytes) 0
scalar MultiCell.ue11.cellularNic.pdcp sentPacketToUpperLayer:count 701
scalar MultiCell.ue11.cellularNic.pdcp sentPacketToUpperLayer:sum(packetBytes) 47668
scalar MultiCell.ue11.cellularNic.pdcp receivedPacketFromLowerLayer:count 701
scalar MultiCell.ue11.cellularNic.pdcp receivedPacketFromLowerLayer:sum(packetBytes) 48369
scalar MultiCell.ue11.cellularNic.pdcp receivedPacketFromUpperLayer:count 0
scalar MultiCell.ue11.cellularNic.pdcp receivedPacketFromUpperLayer:sum(packetBytes) 0
scalar MultiCell.ue11.cellularNic.rlc.tm rlcPacketLossUl:mean -nan
scalar MultiCell.ue11.cellularNic.rlc.tm rlcPacketLossUl:sum 0
scalar MultiCell.ue11.cellularNic.rlc.tm rlcPacketLossDl:mean -nan
scalar MultiCell.ue11.cellularNic.rlc.tm rlcPacketLossDl:sum 0
scalar MultiCell.ue11.cellularNic.rlc.tm sentPacketToLowerLayer:count 0
scalar MultiCell.ue11.cellularNic.rlc.tm sentPacketToLowerLayer:sum(packetBytes) 0
scalar MultiCell.ue11.cellularNic.rlc.tm sentPacketToUpperLayer:count 0
scalar MultiCell.ue11.cellularNic.rlc.tm sentPacketToUpperLayer:sum(packetBytes) 0
scalar MultiCell.ue11.cellularNic.rlc.tm receivedPacketFromLowerLayer:count 0
scalar MultiCell.ue11.cellularNic.rlc.tm receivedPacketFromLowerLayer:sum(packetBytes) 0
scalar MultiCell.ue11.cellularNic.rlc.tm receivedPacketFromUpperLayer:count 0
scalar MultiCell.ue11.cellularNic.rlc.tm receivedPacketFromUpperLayer:sum(packetBytes) 0
scalar MultiCell.ue11.cellularNic.rlc.um rlcPacketLossTotal:mean 0
scalar MultiCell.ue11.cellularNic.rlc.um rlcCellThroughputUl:mean -nan
scalar MultiCell.ue11.cellularNic.rlc.um rlcCellThroughputDl:mean -nan
scalar MultiCell.ue11.cellularNic.rlc.um rlcPduThroughputUl:mean -nan
scalar MultiCell.ue11.cellularNic.rlc.um rlcPduThroughputDl:mean 0
scalar MultiCell.ue11.cellularNic.rlc.um rlcPduDelayUl:mean -nan
scalar MultiCell.ue11.cellularNic.rlc.um rlcPduDelayDl:mean 0.0040000000000000027
scalar MultiCell.ue11.cellularNic.rlc.um rlcThroughputUl:mean -nan
scalar MultiCell.ue11.cellularNic.rlc.um rlcThroughputDl:mean 2141.7856993342057
scalar MultiCell.ue11.cellularNic.rlc.um rlcDelayUl:mean -nan
scalar MultiCell.ue11.cellularNic.rlc.um rlcDelayDl:mean 0.0047358085683551886
scalar MultiCell.ue11.cellularNic.rlc.um rlcPduPacketLossUl:mean -nan
scalar MultiCell.ue11.cellularNic.rlc.um rlcPduPacketLossDl:mean 0
scalar MultiCell.ue11.cellularNic.rlc.um rlcPacketLossUl:mean -nan
scalar MultiCell.ue11.cellularNic.rlc.um rlcPacketLossUl:sum 0
scalar MultiCell.ue11.cellularNic.rlc.um rlcPacketLossDl:mean 0
scalar MultiCell.ue11.cellularNic.rlc.um rlcPacketLossDl:sum 0
scalar MultiCell.ue11.cellularNic.rlc.um rlcCellPacketLossUl:mean -nan
scalar MultiCell.ue11.cellularNic.rlc.um rlcCellPacketLossDl:mean -nan
scalar MultiCell.ue11.cellularNic.rlc.um sentPacketToLowerLayer:count 0
scalar MultiCell.ue11.cellularNic.rlc.um sentPacketToLowerLayer:sum(packetBytes) 0
scalar MultiCell.ue11.cellularNic.rlc.um sentPacketToUpperLayer:count 701
scalar MultiCell.ue11.cellularNic.rlc.um sentPacketToUpperLayer:sum(packetBytes) 48369
scalar MultiCell.ue11.cellularNic.rlc.um receivedPacketFromLowerLayer:count 699
scalar MultiCell.ue11.cellularNic.rlc.um receivedPacketFromLowerLayer:sum(packetBytes) 49767
scalar MultiCell.ue11.cellularNic.rlc.um receivedPacketFromUpperLayer:count 0
scalar MultiCell.ue11.cellularNic.rlc.um receivedPacketFromUpperLayer:sum(packetBytes) 0
scalar MultiCell.ue11.cellularNic.rlc.am rlcPacketLossTotal:mean -nan
scalar MultiCell.ue11.cellularNic.rlc.am rlcCellThroughputUl:mean -nan
scalar MultiCell.ue11.cellularNic.rlc.am rlcCellThroughputDl:mean -nan
scalar MultiCell.ue11.cellularNic.rlc.am rlcPduThroughputUl:mean -nan
scalar MultiCell.ue11.cellularNic.rlc.am rlcPduThroughputDl:mean -nan
scalar MultiCell.ue11.cellularNic.rlc.am rlcPduDelayUl:mean -nan
scalar MultiCell.ue11.cellularNic.rlc.am rlcPduDelayDl:mean -nan
scalar MultiCell.ue11.cellularNic.rlc.am rlcThroughputUl:mean -nan
scalar MultiCell.ue11.cellularNic.rlc.am rlcThroughputDl:mean -nan
scalar MultiCell.ue11.cellularNic.rlc.am rlcDelayUl:mean -nan
scalar MultiCell.ue11.cellularNic.rlc.am rlcDelayDl:mean -nan
scalar MultiCell.ue11.cellularNic.rlc.am rlcPduPacketLossUl:mean -nan
scalar MultiCell.ue11.cellularNic.rlc.am rlcPduPacketLossDl:mean -nan
scalar MultiCell.ue11.cellularNic.rlc.am rlcPacketLossUl:mean -nan
scalar MultiCell.ue11.cellularNic.rlc.am rlcPacketLossDl:mean -nan
scalar MultiCell.ue11.cellularNic.rlc.am rlcCellPacketLossUl:mean -nan
scalar MultiCell.ue11.cellularNic.rlc.am rlcCellPacketLossDl:mean -nan
scalar MultiCell.ue11.cellularNic.mac harqTxAttemptsUl:mean -nan
scalar MultiCell.ue11.cellularNic.mac harqTxAttemptsDl:mean 1
scalar MultiCell.ue11.cellularNic.mac harqErrorRate_4th_Ul:mean -nan
scalar MultiCell.ue11.cellularNic.mac harqErrorRate_4th_Dl:mean -nan
scalar MultiCell.ue11.cellularNic.mac harqErrorRate_3rd_Ul:mean -nan
scalar MultiCell.ue11.cellularNic.mac harqErrorRate_3rd_Dl:mean -nan
scalar MultiCell.ue11.cellularNic.mac harqErrorRate_2nd_Ul:mean -nan
scalar MultiCell.ue11.cellularNic.mac harqErrorRate_2nd_Dl:mean -nan
scalar MultiCell.ue11.cellularNic.mac harqErrorRate_1st_Ul:mean -nan
scalar MultiCell.ue11.cellularNic.mac harqErrorRate_1st_Dl:mean 0
scalar MultiCell.ue11.cellularNic.mac harqErrorRateUl:mean -nan
scalar MultiCell.ue11.cellularNic.mac harqErrorRateDl:mean 0
scalar MultiCell.ue11.cellularNic.mac macCellPacketLossUl:mean -nan
scalar MultiCell.ue11.cellularNic.mac macCellPacketLossDl:mean -nan
scalar MultiCell.ue11.cellularNic.mac macPacketLossUl:mean -nan
scalar MultiCell.ue11.cellularNic.mac macPacketLossDl:mean 0
scalar MultiCell.ue11.cellularNic.mac macThroughputUl:mean -nan
scalar MultiCell.ue11.cellularNic.mac macThroughputDl:mean 2271.2743952031437
scalar MultiCell.ue11.cellularNic.mac macDelayUl:mean -nan
scalar MultiCell.ue11.cellularNic.mac macDelayDl:mean 0.0040000000000000027
scalar MultiCell.ue11.cellularNic.mac macCellThroughputUl:mean -nan
scalar MultiCell.ue11.cellularNic.mac macCellThroughputDl:mean -nan
scalar MultiCell.ue11.cellularNic.mac sentPacketToLowerLayer:count 699
scalar MultiCell.ue11.cellularNic.mac sentPacketToLowerLayer:sum(packetBytes) 699
scalar MultiCell.ue11.cellularNic.mac sentPacketToUpperLayer:count 699
scalar MultiCell.ue11.cellularNic.mac sentPacketToUpperLayer:sum(packetBytes) 49767
scalar MultiCell.ue11.cellularNic.mac receivedPacketFromLowerLayer:count 699
scalar MultiCell.ue11.cellularNic.mac receivedPacketFromLowerLayer:sum(packetBytes) 51165
scalar MultiCell.ue11.cellularNic.mac receivedPacketFromUpperLayer:count 0
scalar MultiCell.ue11.cellularNic.mac receivedPacketFromUpperLayer:sum(packetBytes) 0
scalar MultiCell.ue11.cellularNic.mac macBufferOverFlowD2D:mean -nan
scalar MultiCell.ue11.cellularNic.mac macBufferOverFlowUl:mean -nan
scalar MultiCell.ue11.cellularNic.mac macBufferOverFlowDl:mean -nan
scalar MultiCell.ue11.cellularNic.phy distance:mean 42.495705005928102
scalar MultiCell.ue11.cellularNic.phy averageCqiUl:mean -nan
scalar MultiCell.ue11.cellularNic.phy averageCqiUl:count 0
scalar MultiCell.ue11.cellularNic.phy averageCqiDl:mean 15
scalar MultiCell.ue11.cellularNic.phy averageCqiDl:count 699
scalar MultiCell.ue11.cellularNic.channelModel[0] measuredSinrUl:mean 58.899198914587018
scalar MultiCell.ue11.cellularNic.channelModel[0] measuredSinrDl:mean 70.899198914586918
scalar MultiCell.ue11.cellularNic.channelModel[0] rcvdSinrD2D:mean -nan
scalar MultiCell.ue11.cellularNic.channelModel[0] rcvdSinrUl:mean -nan
scalar MultiCell.ue11.cellularNic.channelModel[0] rcvdSinrDl:mean 71.115491718886531
scalar MultiCell.ue11.cellularNic packetDropInterfaceDown:count 0
scalar MultiCell.ue11.cellularNic packetDropInterfaceDown:sum(packetBytes) 0
scalar MultiCell.ue11.cellularNic packetDropNoCarrier:count 0
scalar MultiCell.ue11.cellularNic packetDropNoCarrier:sum(packetBytes) 0
scalar MultiCell.ue11.encap pauseSent:count 0
scalar MultiCell.ue11.encap pauseSent:sum 0
scalar MultiCell.ue11.encap decapPk:count 0
scalar MultiCell.ue11.encap decapPk:sum(packetBytes) 0
scalar MultiCell.ue11.encap encapPk:count 0
scalar MultiCell.ue11.encap encapPk:sum(packetBytes) 0
scalar MultiCell.ue11.ipv4.ip packetDropAddressResolutionFailed:count 0
scalar MultiCell.ue11.ipv4.ip packetDropAddressResolutionFailed:sum(packetBytes) 0
scalar MultiCell.ue11.ipv4.ip packetDropHopLimitReached:count 0
[...]
scalar MultiCell.eNodeB1.sctp "Length of SACK Sent 5:max" 16
scalar MultiCell.eNodeB1.sctp "Length of SACK Sent 5:starttime" 2.0500101068000007
scalar MultiCell.eNodeB1.sctp "Length of SACK Sent 5:endtime" 5.2500101068000014
scalar MultiCell.eNodeB1.sctp "Number of Revokable Gap Blocks Sent 5:count" 2
scalar MultiCell.eNodeB1.sctp "Number of Revokable Gap Blocks Sent 5:sum" 0
scalar MultiCell.eNodeB1.sctp "Number of Revokable Gap Blocks Sent 5:sumweights" 2
scalar MultiCell.eNodeB1.sctp "Number of Revokable Gap Blocks Sent 5:mean" 0
scalar MultiCell.eNodeB1.sctp "Number of Revokable Gap Blocks Sent 5:stddev" 0
scalar MultiCell.eNodeB1.sctp "Number of Revokable Gap Blocks Sent 5:min" 0
scalar MultiCell.eNodeB1.sctp "Number of Revokable Gap Blocks Sent 5:max" 0
scalar MultiCell.eNodeB1.sctp "Number of Revokable Gap Blocks Sent 5:starttime" 2.0500101068000007
scalar MultiCell.eNodeB1.sctp "Number of Revokable Gap Blocks Sent 5:endtime" 5.2500101068000014
scalar MultiCell.eNodeB1.sctp "Number of Non-Revokable Gap Blocks Sent 5:count" 2
scalar MultiCell.eNodeB1.sctp "Number of Non-Revokable Gap Blocks Sent 5:sum" 0
scalar MultiCell.eNodeB1.sctp "Number of Non-Revokable Gap Blocks Sent 5:sumweights" 2
scalar MultiCell.eNodeB1.sctp "Number of Non-Revokable Gap Blocks Sent 5:mean" 0
scalar MultiCell.eNodeB1.sctp "Number of Non-Revokable Gap Blocks Sent 5:stddev" 0
scalar MultiCell.eNodeB1.sctp "Number of Non-Revokable Gap Blocks Sent 5:min" 0
scalar MultiCell.eNodeB1.sctp "Number of Non-Revokable Gap Blocks Sent 5:max" 0
scalar MultiCell.eNodeB1.sctp "Number of Non-Revokable Gap Blocks Sent 5:starttime" 2.0500101068000007
scalar MultiCell.eNodeB1.sctp "Number of Non-Revokable Gap Blocks Sent 5:endtime" 5.2500101068000014
scalar MultiCell.eNodeB1.sctp "Number of Duplicate TSNs Sent 5:count" 2
scalar MultiCell.eNodeB1.sctp "Number of Duplicate TSNs Sent 5:sum" 0
scalar MultiCell.eNodeB1.sctp "Number of Duplicate TSNs Sent 5:sumweights" 2
scalar MultiCell.eNodeB1.sctp "Number of Duplicate TSNs Sent 5:mean" 0
scalar MultiCell.eNodeB1.sctp "Number of Duplicate TSNs Sent 5:stddev" 0
scalar MultiCell.eNodeB1.sctp "Number of Duplicate TSNs Sent 5:min" 0
scalar MultiCell.eNodeB1.sctp "Number of Duplicate TSNs Sent 5:max" 0
scalar MultiCell.eNodeB1.sctp "Number of Duplicate TSNs Sent 5:starttime" 2.0500101068000007
scalar MultiCell.eNodeB1.sctp "Number of Duplicate TSNs Sent 5:endtime" 5.2500101068000014
scalar MultiCell.eNodeB1.sctp "End to End Delay of Association 5:count" 2
scalar MultiCell.eNodeB1.sctp "End to End Delay of Association 5:sum" 2.1360000000000001e-07
scalar MultiCell.eNodeB1.sctp "End to End Delay of Association 5:sumweights" 2
scalar MultiCell.eNodeB1.sctp "End to End Delay of Association 5:mean" 1.068e-07
scalar MultiCell.eNodeB1.sctp "End to End Delay of Association 5:stddev" 0
scalar MultiCell.eNodeB1.sctp "End to End Delay of Association 5:min" 1.068e-07
scalar MultiCell.eNodeB1.sctp "End to End Delay of Association 5:max" 1.068e-07
scalar MultiCell.eNodeB1.sctp "End to End Delay of Association 5:starttime" 2.0500101068000007
scalar MultiCell.eNodeB1.sctp "End to End Delay of Association 5:endtime" 5.0500101068000012
scalar MultiCell.eNodeB2.sctp "Number of Gap Blocks in Last SACK of Association 31:count" 2
scalar MultiCell.eNodeB2.sctp "Number of Gap Blocks in Last SACK of Association 31:sum" 0
scalar MultiCell.eNodeB2.sctp "Number of Gap Blocks in Last SACK of Association 31:sumweights" 2
scalar MultiCell.eNodeB2.sctp "Number of Gap Blocks in Last SACK of Association 31:mean" 0
scalar MultiCell.eNodeB2.sctp "Number of Gap Blocks in Last SACK of Association 31:stddev" 0
scalar MultiCell.eNodeB2.sctp "Number of Gap Blocks in Last SACK of Association 31:min" 0
scalar MultiCell.eNodeB2.sctp "Number of Gap Blocks in Last SACK of Association 31:max" 0
scalar MultiCell.eNodeB2.sctp "Number of Gap Blocks in Last SACK of Association 31:starttime" 2.0500102008000005
scalar MultiCell.eNodeB2.sctp "Number of Gap Blocks in Last SACK of Association 31:endtime" 5.2500102008000011
scalar MultiCell.eNodeB2.sctp "Number of Revokable Gap Blocks in SACK 30:count" 2
scalar MultiCell.eNodeB2.sctp "Number of Revokable Gap Blocks in SACK 30:sum" 0
scalar MultiCell.eNodeB2.sctp "Number of Revokable Gap Blocks in SACK 30:sumweights" 2
scalar MultiCell.eNodeB2.sctp "Number of Revokable Gap Blocks in SACK 30:mean" 0
scalar MultiCell.eNodeB2.sctp "Number of Revokable Gap Blocks in SACK 30:stddev" 0
scalar MultiCell.eNodeB2.sctp "Number of Revokable Gap Blocks in SACK 30:min" 0
scalar MultiCell.eNodeB2.sctp "Number of Revokable Gap Blocks in SACK 30:max" 0
scalar MultiCell.eNodeB2.sctp "Number of Revokable Gap Blocks in SACK 30:starttime" 2.0500102008000005
scalar MultiCell.eNodeB2.sctp "Number of Revokable Gap Blocks in SACK 30:endtime" 5.2500102008000011
scalar MultiCell.eNodeB2.sctp "Number of Non-Revokable Gap Blocks in SACK 30:count" 2
scalar MultiCell.eNodeB2.sctp "Number of Non-Revokable Gap Blocks in SACK 30:sum" 0
scalar MultiCell.eNodeB2.sctp "Number of Non-Revokable Gap Blocks in SACK 30:sumweights" 2
scalar MultiCell.eNodeB2.sctp "Number of Non-Revokable Gap Blocks in SACK 30:mean" 0
scalar MultiCell.eNodeB2.sctp "Number of Non-Revokable Gap Blocks in SACK 30:stddev" 0
scalar MultiCell.eNodeB2.sctp "Number of Non-Revokable Gap Blocks in SACK 30:min" 0
scalar MultiCell.eNodeB2.sctp "Number of Non-Revokable Gap Blocks in SACK 30:max" 0
scalar MultiCell.eNodeB2.sctp "Number of Non-Revokable Gap Blocks in SACK 30:starttime" 2.0500102008000005
scalar MultiCell.eNodeB2.sctp "Number of Non-Revokable Gap Blocks in SACK 30:endtime" 5.2500102008000011
scalar MultiCell.eNodeB2.sctp "TSN Acked CumAck 31:10.0.5.1:count" 2
scalar MultiCell.eNodeB2.sctp "TSN Acked CumAck 31:10.0.5.1:sum" 4001
scalar MultiCell.eNodeB2.sctp "TSN Acked CumAck 31:10.0.5.1:sumweights" 2
scalar MultiCell.eNodeB2.sctp "TSN Acked CumAck 31:10.0.5.1:mean" 2000.5
scalar MultiCell.eNodeB2.sctp "TSN Acked CumAck 31:10.0.5.1:stddev" 0.70710678118654757
scalar MultiCell.eNodeB2.sctp "TSN Acked CumAck 31:10.0.5.1:min" 2000
scalar MultiCell.eNodeB2.sctp "TSN Acked CumAck 31:10.0.5.1:max" 2001
scalar MultiCell.eNodeB2.sctp "TSN Acked CumAck 31:10.0.5.1:starttime" 2.0500102008000005
scalar MultiCell.eNodeB2.sctp "TSN Acked CumAck 31:10.0.5.1:endtime" 5.2500102008000011
scalar MultiCell.eNodeB2.sctp "Number of Gap Acked Chunks in Last SACK 31:10.0.1.2:count" 2
scalar MultiCell.eNodeB2.sctp "Number of Gap Acked Chunks in Last SACK 31:10.0.1.2:sum" 0
scalar MultiCell.eNodeB2.sctp "Number of Gap Acked Chunks in Last SACK 31:10.0.1.2:sumweights" 2
scalar MultiCell.eNodeB2.sctp "Number of Gap Acked Chunks in Last SACK 31:10.0.1.2:mean" 0
scalar MultiCell.eNodeB2.sctp "Number of Gap Acked Chunks in Last SACK 31:10.0.1.2:stddev" 0
scalar MultiCell.eNodeB2.sctp "Number of Gap Acked Chunks in Last SACK 31:10.0.1.2:min" 0
scalar MultiCell.eNodeB2.sctp "Number of Gap Acked Chunks in Last SACK 31:10.0.1.2:max" 0
scalar MultiCell.eNodeB2.sctp "Number of Gap Acked Chunks in Last SACK 31:10.0.1.2:starttime" 2.0500102008000005
scalar MultiCell.eNodeB2.sctp "Number of Gap Acked Chunks in Last SACK 31:10.0.1.2:endtime" 5.2500102008000011
scalar MultiCell.eNodeB2.sctp "Number of Non-Revokable Gap Acked Chunks in Last SACK 31:10.0.1.2:count" 2
scalar MultiCell.eNodeB2.sctp "Number of Non-Revokable Gap Acked Chunks in Last SACK 31:10.0.1.2:sum" 0
scalar MultiCell.eNodeB2.sctp "Number of Non-Revokable Gap Acked Chunks in Last SACK 31:10.0.1.2:sumweights" 2
scalar MultiCell.eNodeB2.sctp "Number of Non-Revokable Gap Acked Chunks in Last SACK 31:10.0.1.2:mean" 0
scalar MultiCell.eNodeB2.sctp "Number of Non-Revokable Gap Acked Chunks in Last SACK 31:10.0.1.2:stddev" 0
scalar MultiCell.eNodeB2.sctp "Number of Non-Revokable Gap Acked Chunks in Last SACK 31:10.0.1.2:min" 0
scalar MultiCell.eNodeB2.sctp "Number of Non-Revokable Gap Acked Chunks in Last SACK 31:10.0.1.2:max" 0
scalar MultiCell.eNodeB2.sctp "Number of Non-Revokable Gap Acked Chunks in Last SACK 31:10.0.1.2:starttime" 2.0500102008000005
scalar MultiCell.eNodeB2.sctp "Number of Non-Revokable Gap Acked Chunks in Last SACK 31:10.0.1.2:endtime" 5.2500102008000011
scalar MultiCell.eNodeB2.sctp "Number of Gap Missed Chunks in Last SACK 31:10.0.1.2:count" 2
scalar MultiCell.eNodeB2.sctp "Number of Gap Missed Chunks in Last SACK 31:10.0.1.2:sum" 0
scalar MultiCell.eNodeB2.sctp "Number of Gap Missed Chunks in Last SACK 31:10.0.1.2:sumweights" 2
scalar MultiCell.eNodeB2.sctp "Number of Gap Missed Chunks in Last SACK 31:10.0.1.2:mean" 0
scalar MultiCell.eNodeB2.sctp "Number of Gap Missed Chunks in Last SACK 31:10.0.1.2:stddev" 0
scalar MultiCell.eNodeB2.sctp "Number of Gap Missed Chunks in Last SACK 31:10.0.1.2:min" 0
scalar MultiCell.eNodeB2.sctp "Number of Gap Missed Chunks in Last SACK 31:10.0.1.2:max" 0
scalar MultiCell.eNodeB2.sctp "Number of Gap Missed Chunks in Last SACK 31:10.0.1.2:starttime" 2.0500102008000005
scalar MultiCell.eNodeB2.sctp "Number of Gap Missed Chunks in Last SACK 31:10.0.1.2:endtime" 5.2500102008000011
scalar MultiCell.eNodeB2.sctp "Number of Gap Acked Chunks in Last SACK 31:10.0.4.1:count" 2
scalar MultiCell.eNodeB2.sctp "Number of Gap Acked Chunks in Last SACK 31:10.0.4.1:sum" 0
scalar MultiCell.eNodeB2.sctp "Number of Gap Acked Chunks in Last SACK 31:10.0.4.1:sumweights" 2
scalar MultiCell.eNodeB2.sctp "Number of Gap Acked Chunks in Last SACK 31:10.0.4.1:mean" 0
scalar MultiCell.eNodeB2.sctp "Number of Gap Acked Chunks in Last SACK 31:10.0.4.1:stddev" 0
scalar MultiCell.eNodeB2.sctp "Number of Gap Acked Chunks in Last SACK 31:10.0.4.1:min" 0
scalar MultiCell.eNodeB2.sctp "Number of Gap Acked Chunks in Last SACK 31:10.0.4.1:max" 0
scalar MultiCell.eNodeB2.sctp "Number of Gap Acked Chunks in Last SACK 31:10.0.4.1:starttime" 2.0500102008000005
scalar MultiCell.eNodeB2.sctp "Number of Gap Acked Chunks in Last SACK 31:10.0.4.1:endtime" 5.2500102008000011
scalar MultiCell.eNodeB2.sctp "Number of Non-Revokable Gap Acked Chunks in Last SACK 31:10.0.4.1:count" 2
scalar MultiCell.eNodeB2.sctp "Number of Non-Revokable Gap Acked Chunks in Last SACK 31:10.0.4.1:sum" 0
scalar MultiCell.eNodeB2.sctp "Number of Non-Revokable Gap Acked Chunks in Last SACK 31:10.0.4.1:sumweights" 2
scalar MultiCell.eNodeB2.sctp "Number of Non-Revokable Gap Acked Chunks in Last SACK 31:10.0.4.1:mean" 0
scalar MultiCell.eNodeB2.sctp "Number of Non-Revokable Gap Acked Chunks in Last SACK 31:10.0.4.1:stddev" 0
scalar MultiCell.eNodeB2.sctp "Number of Non-Revokable Gap Acked Chunks in Last SACK 31:10.0.4.1:min" 0
scalar MultiCell.eNodeB2.sctp "Number of Non-Revokable Gap Acked Chunks in Last SACK 31:10.0.4.1:max" 0
scalar MultiCell.eNodeB2.sctp "Number of Non-Revokable Gap Acked Chunks in Last SACK 31:10.0.4.1:starttime" 2.0500102008000005
scalar MultiCell.eNodeB2.sctp "Number of Non-Revokable Gap Acked Chunks in Last SACK 31:10.0.4.1:endtime" 5.2500102008000011
scalar MultiCell.eNodeB2.sctp "Number of Gap Missed Chunks in Last SACK 31:10.0.4.1:count" 2
scalar MultiCell.eNodeB2.sctp "Number of Gap Missed Chunks in Last SACK 31:10.0.4.1:sum" 0
scalar MultiCell.eNodeB2.sctp "Number of Gap Missed Chunks in Last SACK 31:10.0.4.1:sumweights" 2
scalar MultiCell.eNodeB2.sctp "Number of Gap Missed Chunks in Last SACK 31:10.0.4.1:mean" 0
scalar MultiCell.eNodeB2.sctp "Number of Gap Missed Chunks in Last SACK 31:10.0.4.1:stddev" 0
scalar MultiCell.eNodeB2.sctp "Number of Gap Missed Chunks in Last SACK 31:10.0.4.1:min" 0
scalar MultiCell.eNodeB2.sctp "Number of Gap Missed Chunks in Last SACK 31:10.0.4.1:max" 0
scalar MultiCell.eNodeB2.sctp "Number of Gap Missed Chunks in Last SACK 31:10.0.4.1:starttime" 2.0500102008000005
scalar MultiCell.eNodeB2.sctp "Number of Gap Missed Chunks in Last SACK 31:10.0.4.1:endtime" 5.2500102008000011
scalar MultiCell.eNodeB2.sctp "Number of Gap Acked Chunks in Last SACK 31:10.0.5.1:count" 2
scalar MultiCell.eNodeB2.sctp "Number of Gap Acked Chunks in Last SACK 31:10.0.5.1:sum" 0
scalar MultiCell.eNodeB2.sctp "Number of Gap Acked Chunks in Last SACK 31:10.0.5.1:sumweights" 2
scalar MultiCell.eNodeB2.sctp "Number of Gap Acked Chunks in Last SACK 31:10.0.5.1:mean" 0
scalar MultiCell.eNodeB2.sctp "Number of Gap Acked Chunks in Last SACK 31:10.0.5.1:stddev" 0
scalar MultiCell.eNodeB2.sctp "Number of Gap Acked Chunks in Last SACK 31:10.0.5.1:min" 0
scalar MultiCell.eNodeB2.sctp "Number of Gap Acked Chunks in Last SACK 31:10.0.5.1:max" 0
scalar MultiCell.eNodeB2.sctp "Number of Gap Acked Chunks in Last SACK 31:10.0.5.1:starttime" 2.0500102008000005
scalar MultiCell.eNodeB2.sctp "Number of Gap Acked Chunks in Last SACK 31:10.0.5.1:endtime" 5.2500102008000011
scalar MultiCell.eNodeB2.sctp "Number of Non-Revokable Gap Acked Chunks in Last SACK 31:10.0.5.1:count" 2
scalar MultiCell.eNodeB2.sctp "Number of Non-Revokable Gap Acked Chunks in Last SACK 31:10.0.5.1:sum" 0
scalar MultiCell.eNodeB2.sctp "Number of Non-Revokable Gap Acked Chunks in Last SACK 31:10.0.5.1:sumweights" 2
scalar MultiCell.eNodeB2.sctp "Number of Non-Revokable Gap Acked Chunks in Last SACK 31:10.0.5.1:mean" 0
scalar MultiCell.eNodeB2.sctp "Number of Non-Revokable Gap Acked Chunks in Last SACK 31:10.0.5.1:stddev" 0
scalar MultiCell.eNodeB2.sctp "Number of Non-Revokable Gap Acked Chunks in Last SACK 31:10.0.5.1:min" 0
scalar MultiCell.eNodeB2.sctp "Number of Non-Revokable Gap Acked Chunks in Last SACK 31:10.0.5.1:max" 0
scalar MultiCell.eNodeB2.sctp "Number of Non-Revokable Gap Acked Chunks in Last SACK 31:10.0.5.1:starttime" 2.0500102008000005
scalar MultiCell.eNodeB2.sctp "Number of Non-Revokable Gap Acked Chunks in Last SACK 31:10.0.5.1:endtime" 5.2500102008000011
scalar MultiCell.eNodeB2.sctp "Number of Gap Missed Chunks in Last SACK 31:10.0.5.1:count" 2
scalar MultiCell.eNodeB2.sctp "Number of Gap Missed Chunks in Last SACK 31:10.0.5.1:sum" 0
scalar MultiCell.eNodeB2.sctp "Number of Gap Missed Chunks in Last SACK 31:10.0.5.1:sumweights" 2
scalar MultiCell.eNodeB2.sctp "Number of Gap Missed Chunks in Last SACK 31:10.0.5.1:mean" 0
scalar MultiCell.eNodeB2.sctp "Number of Gap Missed Chunks in Last SACK 31:10.0.5.1:stddev" 0
scalar MultiCell.eNodeB2.sctp "Number of Gap Missed Chunks in Last SACK 31:10.0.5.1:min" 0
scalar MultiCell.eNodeB2.sctp "Number of Gap Missed Chunks in Last SACK 31:10.0.5.1:max" 0
scalar MultiCell.eNodeB2.sctp "Number of Gap Missed Chunks in Last SACK 31:10.0.5.1:starttime" 2.0500102008000005
scalar MultiCell.eNodeB2.sctp "Number of Gap Missed Chunks in Last SACK 31:10.0.5.1:endtime" 5.2500102008000011
scalar MultiCell.eNodeB2.sctp "Number of Gap Acked Chunks in Last SACK 31:10.0.6.1:count" 2
scalar MultiCell.eNodeB2.sctp "Number of Gap Acked Chunks in Last SACK 31:10.0.6.1:sum" 0
scalar MultiCell.eNodeB2.sctp "Number of Gap Acked Chunks in Last SACK 31:10.0.6.1:sumweights" 2
scalar MultiCell.eNodeB2.sctp "Number of Gap Acked Chunks in Last SACK 31:10.0.6.1:mean" 0
scalar MultiCell.eNodeB2.sctp "Number of Gap Acked Chunks in Last SACK 31:10.0.6.1:stddev" 0
scalar MultiCell.eNodeB2.sctp "Number of Gap Acked Chunks in Last SACK 31:10.0.6.1:min" 0
scalar MultiCell.eNodeB2.sctp "Number of Gap Acked Chunks in Last SACK 31:10.0.6.1:max" 0
scalar MultiCell.eNodeB2.sctp "Number of Gap Acked Chunks in Last SACK 31:10.0.6.1:starttime" 2.0500102008000005
scalar MultiCell.eNodeB2.sctp "Number of Gap Acked Chunks in Last SACK 31:10.0.6.1:endtime" 5.2500102008000011
scalar MultiCell.eNodeB2.sctp "Number of Non-Revokable Gap Acked Chunks in Last SACK 31:10.0.6.1:count" 2
scalar MultiCell.eNodeB2.sctp "Number of Non-Revokable Gap Acked Chunks in Last SACK 31:10.0.6.1:sum" 0
scalar MultiCell.eNodeB2.sctp "Number of Non-Revokable Gap Acked Chunks in Last SACK 31:10.0.6.1:sumweights" 2
scalar MultiCell.eNodeB2.sctp "Number of Non-Revokable Gap Acked Chunks in Last SACK 31:10.0.6.1:mean" 0
scalar MultiCell.eNodeB2.sctp "Number of Non-Revokable Gap Acked Chunks in Last SACK 31:10.0.6.1:stddev" 0
scalar MultiCell.eNodeB2.sctp "Number of Non-Revokable Gap Acked Chunks in Last SACK 31:10.0.6.1:min" 0
scalar MultiCell.eNodeB2.sctp "Number of Non-Revokable Gap Acked Chunks in Last SACK 31:10.0.6.1:max" 0
scalar MultiCell.eNodeB2.sctp "Number of Non-Revokable Gap Acked Chunks in Last SACK 31:10.0.6.1:starttime" 2.0500102008000005
scalar MultiCell.eNodeB2.sctp "Number of Non-Revokable Gap Acked Chunks in Last SACK 31:10.0.6.1:endtime" 5.2500102008000011
scalar MultiCell.eNodeB2.sctp "Number of Gap Missed Chunks in Last SACK 31:10.0.6.1:count" 2
scalar MultiCell.eNodeB2.sctp "Number of Gap Missed Chunks in Last SACK 31:10.0.6.1:sum" 0
scalar MultiCell.eNodeB2.sctp "Number of Gap Missed Chunks in Last SACK 31:10.0.6.1:sumweights" 2
scalar MultiCell.eNodeB2.sctp "Number of Gap Missed Chunks in Last SACK 31:10.0.6.1:mean" 0
scalar MultiCell.eNodeB2.sctp "Number of Gap Missed Chunks in Last SACK 31:10.0.6.1:stddev" 0
scalar MultiCell.eNodeB2.sctp "Number of Gap Missed Chunks in Last SACK 31:10.0.6.1:min" 0
scalar MultiCell.eNodeB2.sctp "Number of Gap Missed Chunks in Last SACK 31:10.0.6.1:max" 0
scalar MultiCell.eNodeB2.sctp "Number of Gap Missed Chunks in Last SACK 31:10.0.6.1:starttime" 2.0500102008000005
scalar MultiCell.eNodeB2.sctp "Number of Gap Missed Chunks in Last SACK 31:10.0.6.1:endtime" 5.2500102008000011
scalar MultiCell.eNodeB2.sctp "Arwnd in Last SACK 30:count" 2
scalar MultiCell.eNodeB2.sctp "Arwnd in Last SACK 30:sum" 131055
scalar MultiCell.eNodeB2.sctp "Arwnd in Last SACK 30:sumweights" 2
scalar MultiCell.eNodeB2.sctp "Arwnd in Last SACK 30:mean" 65527.5
scalar MultiCell.eNodeB2.sctp "Arwnd in Last SACK 30:stddev" 10.606601717798213
scalar MultiCell.eNodeB2.sctp "Arwnd in Last SACK 30:min" 65520
scalar MultiCell.eNodeB2.sctp "Arwnd in Last SACK 30:max" 65535
scalar MultiCell.eNodeB2.sctp "Arwnd in Last SACK 30:starttime" 2.0500102008000005
scalar MultiCell.eNodeB2.sctp "Arwnd in Last SACK 30:endtime" 5.2500102008000011
scalar MultiCell.eNodeB2.sctp "TSN PseudoCumAck 31:10.0.5.1:count" 2
scalar MultiCell.eNodeB2.sctp "TSN PseudoCumAck 31:10.0.5.1:sum" 0
scalar MultiCell.eNodeB2.sctp "TSN PseudoCumAck 31:10.0.5.1:sumweights" 2
scalar MultiCell.eNodeB2.sctp "TSN PseudoCumAck 31:10.0.5.1:mean" 0
scalar MultiCell.eNodeB2.sctp "TSN PseudoCumAck 31:10.0.5.1:stddev" 0
scalar MultiCell.eNodeB2.sctp "TSN PseudoCumAck 31:10.0.5.1:min" 0
scalar MultiCell.eNodeB2.sctp "TSN PseudoCumAck 31:10.0.5.1:max" 0
scalar MultiCell.eNodeB2.sctp "TSN PseudoCumAck 31:10.0.5.1:starttime" 2.0500102008000005
scalar MultiCell.eNodeB2.sctp "TSN PseudoCumAck 31:10.0.5.1:endtime" 5.2500102008000011
scalar MultiCell.eNodeB2.sctp "TSN RTXPseudoCumAck 31:10.0.5.1:count" 2
scalar MultiCell.eNodeB2.sctp "TSN RTXPseudoCumAck 31:10.0.5.1:sum" 0
scalar MultiCell.eNodeB2.sctp "TSN RTXPseudoCumAck 31:10.0.5.1:sumweights" 2
scalar MultiCell.eNodeB2.sctp "TSN RTXPseudoCumAck 31:10.0.5.1:mean" 0
scalar MultiCell.eNodeB2.sctp "TSN RTXPseudoCumAck 31:10.0.5.1:stddev" 0
scalar MultiCell.eNodeB2.sctp "TSN RTXPseudoCumAck 31:10.0.5.1:min" 0
scalar MultiCell.eNodeB2.sctp "TSN RTXPseudoCumAck 31:10.0.5.1:max" 0
scalar MultiCell.eNodeB2.sctp "TSN RTXPseudoCumAck 31:10.0.5.1:starttime" 2.0500102008000005
scalar MultiCell.eNodeB2.sctp "TSN RTXPseudoCumAck 31:10.0.5.1:endtime" 5.2500102008000011
scalar MultiCell.eNodeB2.sctp "Partial Bytes Acked 31:10.0.5.1:count" 2
scalar MultiCell.eNodeB2.sctp "Partial Bytes Acked 31:10.0.5.1:sum" 0
scalar MultiCell.eNodeB2.sctp "Partial Bytes Acked 31:10.0.5.1:sumweights" 2
scalar MultiCell.eNodeB2.sctp "Partial Bytes Acked 31:10.0.5.1:mean" 0
scalar MultiCell.eNodeB2.sctp "Partial Bytes Acked 31:10.0.5.1:stddev" 0
scalar MultiCell.eNodeB2.sctp "Partial Bytes Acked 31:10.0.5.1:min" 0
scalar MultiCell.eNodeB2.sctp "Partial Bytes Acked 31:10.0.5.1:max" 0
scalar MultiCell.eNodeB2.sctp "Partial Bytes Acked 31:10.0.5.1:starttime" 2.0500102008000005
scalar MultiCell.eNodeB2.sctp "Partial Bytes Acked 31:10.0.5.1:endtime" 5.2500102008000011

