version 3
run VoIP-0-20260709-21:29:49-650862
attr configname VoIP
attr datetime 20260709-21:29:49
attr datetimef 20260709-212949
attr experiment VoIP
attr inifile omnetpp.ini
attr iterationvars ""
attr iterationvarsd ""
attr iterationvarsf ""
attr measurement ""
attr network simu5g.simulations.lte.networks.MultiCell
attr processid 650862
attr repetition 0
attr replication #0
attr resultdir results
attr runnumber 0
attr seedset 0
config **.param-recording false
config image-path /home/andras/projects/Simu5G-fork/simu5g-fork/images
config output-scalar-file results/omnetpp.ini-VoIP-#0.sca
config output-scalar-precision 17
config output-vector-file results/omnetpp.ini-VoIP-#0.vec
config output-vector-precision 17
config record-eventlog false
config sim-time-limit 20s
config **.mac.schedulingDisciplineDl "\"MAXCI\""
config **.mac.schedulingDisciplineUl "\"MAXCI\""
config *.ue*.numApps 1
config *.server.numApps 4
config **.ue1*.macCellId 1
config **.ue1*.masterId 1
config **.ue2*.macCellId 2
config **.ue2*.masterId 2
config *.ue*.mobility.initialMovementHeading "uniform(0deg, 360deg)"
config *.ue*.mobility.constraintAreaMaxX 1000m
config *.ue*.mobility.constraintAreaMaxY 1000m
config *.ue*.mobility.constraintAreaMinX 0m
config *.ue*.mobility.constraintAreaMinY 0m
config *.ue*.mobility.initFromDisplayString false
config *.ue*.mobility.initialX uniform(0m,300m)
config *.ue*.mobility.initialY uniform(0m,300m)
config *.ue*.mobility.initialZ 0m
config *.ue*.mobility.speed 0mps
config *.ue*.mobility.typename LinearMobility
config *.ue*.app[*].typename VoipReceiver
config *.ue*.app[0].localPort 3000
config *.server.app[*].packetSize 40B
config *.server.app[0].destAddress "\"ue11\""
config *.server.app[1].destAddress "\"ue12\""
config *.server.app[2].destAddress "\"ue21\""
config *.server.app[3].destAddress "\"ue22\""
config *.server.app[*].destPort 3000
config *.server.app[*].localPort 3088+ancestorIndex(0)
config *.server.app[*].typename VoipSender
config *.server.app[*].startTime uniform(0s,0.02s)
config sim-time-limit 20s
config network simu5g.simulations.lte.networks.MultiCell
config **.routingRecorder.enabled false
config **.vector-recording false
config seed-set 0
config **.cellularNic.channelModel[0].downlinkInterference true
config **.mobility.constraintAreaMinZ 0m
config **.mobility.constraintAreaMaxZ 0m
config **.mobility.initFromDisplayString true
config **.numBands 6
config **.ueTxPower 26dBm
config **.eNodeBTxPower 40dBm
config *.configurator.config "xmldoc(\"./demo.xml\")"

scalar MultiCell.server.lo[0].lo rcvdPkFromHl:count 0
scalar MultiCell.server.lo[0].lo rcvdPkFromHl:sum(packetBytes) 0
scalar MultiCell.server.lo[0].lo passedUpPk:count 0
scalar MultiCell.server.lo[0].lo passedUpPk:sum(packetBytes) 0
scalar MultiCell.server.lo[0] packetDropInterfaceDown:count 0
scalar MultiCell.server.lo[0] packetDropInterfaceDown:sum(packetBytes) 0
scalar MultiCell.server.lo[0] packetDropNoCarrier:count 0
scalar MultiCell.server.lo[0] packetDropNoCarrier:sum(packetBytes) 0
scalar MultiCell.server.ppp[0].queue queueLength:last 0
scalar MultiCell.server.ppp[0].queue queueLength:max 0
scalar MultiCell.server.ppp[0].queue queueLength:timeavg 0
scalar MultiCell.server.ppp[0].queue queueBitLength:last 0
scalar MultiCell.server.ppp[0].queue queueBitLength:max 0
scalar MultiCell.server.ppp[0].queue queueBitLength:timeavg 0
scalar MultiCell.server.ppp[0].queue outgoingPackets:count 2912
scalar MultiCell.server.ppp[0].queue outgoingPacketLengths:sum 1584128
scalar MultiCell.server.ppp[0].queue incomingPackets:count 2912
scalar MultiCell.server.ppp[0].queue incomingPacketLengths:sum 1584128
scalar MultiCell.server.ppp[0].queue droppedPacketsQueueOverflow:count 0
scalar MultiCell.server.ppp[0].queue droppedPacketLengthsQueueOverflow:sum 0
scalar MultiCell.server.ppp[0].ppp transmissionState:timeavg 8.7359999999996856e-06
scalar MultiCell.server.ppp[0].ppp rxPkOk:count 0
scalar MultiCell.server.ppp[0].ppp rxPkOk:sum(packetBytes) 0
scalar MultiCell.server.ppp[0].ppp txPk:count 2912
scalar MultiCell.server.ppp[0].ppp txPk:sum(packetBytes) 218400
scalar MultiCell.server.ppp[0].ppp rcvdPkFromHl:count 2912
scalar MultiCell.server.ppp[0].ppp rcvdPkFromHl:sum(packetBytes) 198016
scalar MultiCell.server.ppp[0].ppp passedUpPk:count 0
scalar MultiCell.server.ppp[0].ppp passedUpPk:sum(packetBytes) 0
scalar MultiCell.server.ppp[0].ppp packetDropIncorrectlyReceived:count 0
scalar MultiCell.server.ppp[0].ppp packetDropIncorrectlyReceived:sum(packetBytes) 0
scalar MultiCell.server.ppp[0].ppp packetDropInterfaceDown:count 0
scalar MultiCell.server.ppp[0].ppp packetDropInterfaceDown:sum(packetBytes) 0
scalar MultiCell.server.ppp[0] packetDropInterfaceDown:count 0
scalar MultiCell.server.ppp[0] packetDropInterfaceDown:sum(packetBytes) 0
scalar MultiCell.server.ppp[0] packetDropNoCarrier:count 0
scalar MultiCell.server.ppp[0] packetDropNoCarrier:sum(packetBytes) 0
scalar MultiCell.server.ipv4.ip packetDropAddressResolutionFailed:count 0
scalar MultiCell.server.ipv4.ip packetDropAddressResolutionFailed:sum(packetBytes) 0
scalar MultiCell.server.ipv4.ip packetDropHopLimitReached:count 0
scalar MultiCell.server.ipv4.ip packetDropHopLimitReached:sum(packetBytes) 0
scalar MultiCell.server.ipv4.ip packetDropForwardingDisabled:count 0
scalar MultiCell.server.ipv4.ip packetDropForwardingDisabled:sum(packetBytes) 0
scalar MultiCell.server.ipv4.ip packetDropNoInterfaceFound:count 0
scalar MultiCell.server.ipv4.ip packetDropNoInterfaceFound:sum(packetBytes) 0
scalar MultiCell.server.ipv4.ip packetDropNoRouteFound:count 0
scalar MultiCell.server.ipv4.ip packetDropNoRouteFound:sum(packetBytes) 0
scalar MultiCell.server.ipv4.ip packetDropUndefined:count 0
scalar MultiCell.server.ipv4.ip packetDropUndefined:sum(packetBytes) 0
scalar MultiCell.server.ipv4.arp arpResolutionFailed:count 0
scalar MultiCell.server.ipv4.arp arpResolutionCompleted:count 0
scalar MultiCell.server.ipv4.arp arpResolutionInitiated:count 0
scalar MultiCell.server.ipv4.arp arpReplySent:count 0
scalar MultiCell.server.ipv4.arp arpReplySent:sum(packetBytes) 0
scalar MultiCell.server.ipv4.arp arpRequestSent:count 0
scalar MultiCell.server.ipv4.arp arpRequestSent:sum(packetBytes) 0
scalar MultiCell.server.udp packetReceived:count 0
scalar MultiCell.server.udp packetReceived:sum(packetBytes) 0
scalar MultiCell.server.udp packetSent:count 2912
scalar MultiCell.server.udp packetSent:sum(packetBytes) 139776
scalar MultiCell.server.udp passedUpPk:count 0
scalar MultiCell.server.udp droppedPkWrongPort:count 0
scalar MultiCell.server.udp droppedPkBadChecksum:count 0
scalar MultiCell.server.app[0] voIPGeneratedThroughput:mean 1823.4916915826668
scalar MultiCell.server.app[1] voIPGeneratedThroughput:mean 1506.9639102609858
scalar MultiCell.server.app[2] voIPGeneratedThroughput:mean 1269.7939037272527
scalar MultiCell.server.app[3] voIPGeneratedThroughput:mean 1530.7906890401089
scalar MultiCell.pgw.lo[0].lo rcvdPkFromHl:count 0
scalar MultiCell.pgw.lo[0].lo rcvdPkFromHl:sum(packetBytes) 0
scalar MultiCell.pgw.lo[0].lo passedUpPk:count 0
scalar MultiCell.pgw.lo[0].lo passedUpPk:sum(packetBytes) 0
scalar MultiCell.pgw.lo[0] packetDropInterfaceDown:count 0
scalar MultiCell.pgw.lo[0] packetDropInterfaceDown:sum(packetBytes) 0
scalar MultiCell.pgw.lo[0] packetDropNoCarrier:count 0
scalar MultiCell.pgw.lo[0] packetDropNoCarrier:sum(packetBytes) 0
scalar MultiCell.pgw.ppp[0].queue queueLength:last 0
scalar MultiCell.pgw.ppp[0].queue queueLength:max 0
scalar MultiCell.pgw.ppp[0].queue queueLength:timeavg 0
scalar MultiCell.pgw.ppp[0].queue queueBitLength:last 0
scalar MultiCell.pgw.ppp[0].queue queueBitLength:max 0
scalar MultiCell.pgw.ppp[0].queue queueBitLength:timeavg 0
scalar MultiCell.pgw.ppp[0].queue outgoingPackets:count 1519
scalar MultiCell.pgw.ppp[0].queue outgoingPacketLengths:sum 1263808
scalar MultiCell.pgw.ppp[0].queue incomingPackets:count 1519
scalar MultiCell.pgw.ppp[0].queue incomingPacketLengths:sum 1263808
scalar MultiCell.pgw.ppp[0].queue droppedPacketsQueueOverflow:count 0
scalar MultiCell.pgw.ppp[0].queue droppedPacketLengthsQueueOverflow:sum 0
scalar MultiCell.pgw.ppp[0].ppp transmissionState:timeavg 6.744360000000188e-06
scalar MultiCell.pgw.ppp[0].ppp rxPkOk:count 0
scalar MultiCell.pgw.ppp[0].ppp rxPkOk:sum(packetBytes) 0
scalar MultiCell.pgw.ppp[0].ppp txPk:count 1519
scalar MultiCell.pgw.ppp[0].ppp txPk:sum(packetBytes) 168609
scalar MultiCell.pgw.ppp[0].ppp rcvdPkFromHl:count 1519
scalar MultiCell.pgw.ppp[0].ppp rcvdPkFromHl:sum(packetBytes) 157976
scalar MultiCell.pgw.ppp[0].ppp passedUpPk:count 0
scalar MultiCell.pgw.ppp[0].ppp passedUpPk:sum(packetBytes) 0
scalar MultiCell.pgw.ppp[0].ppp packetDropIncorrectlyReceived:count 0
scalar MultiCell.pgw.ppp[0].ppp packetDropIncorrectlyReceived:sum(packetBytes) 0
scalar MultiCell.pgw.ppp[0].ppp packetDropInterfaceDown:count 0
scalar MultiCell.pgw.ppp[0].ppp packetDropInterfaceDown:sum(packetBytes) 0
scalar MultiCell.pgw.ppp[0] packetDropInterfaceDown:count 0
scalar MultiCell.pgw.ppp[0] packetDropInterfaceDown:sum(packetBytes) 0
scalar MultiCell.pgw.ppp[0] packetDropNoCarrier:count 0
scalar MultiCell.pgw.ppp[0] packetDropNoCarrier:sum(packetBytes) 0
scalar MultiCell.pgw.ppp[1].queue queueLength:last 0
scalar MultiCell.pgw.ppp[1].queue queueLength:max 0
scalar MultiCell.pgw.ppp[1].queue queueLength:timeavg 0
scalar MultiCell.pgw.ppp[1].queue queueBitLength:last 0
scalar MultiCell.pgw.ppp[1].queue queueBitLength:max 0
scalar MultiCell.pgw.ppp[1].queue queueBitLength:timeavg 0
scalar MultiCell.pgw.ppp[1].queue outgoingPackets:count 1393
scalar MultiCell.pgw.ppp[1].queue outgoingPacketLengths:sum 1158976
scalar MultiCell.pgw.ppp[1].queue incomingPackets:count 1393
scalar MultiCell.pgw.ppp[1].queue incomingPacketLengths:sum 1158976
scalar MultiCell.pgw.ppp[1].queue droppedPacketsQueueOverflow:count 0
scalar MultiCell.pgw.ppp[1].queue droppedPacketLengthsQueueOverflow:sum 0
scalar MultiCell.pgw.ppp[1].ppp transmissionState:timeavg 6.1849200000001571e-06
scalar MultiCell.pgw.ppp[1].ppp rxPkOk:count 0
scalar MultiCell.pgw.ppp[1].ppp rxPkOk:sum(packetBytes) 0
scalar MultiCell.pgw.ppp[1].ppp txPk:count 1393
scalar MultiCell.pgw.ppp[1].ppp txPk:sum(packetBytes) 154623
scalar MultiCell.pgw.ppp[1].ppp rcvdPkFromHl:count 1393
scalar MultiCell.pgw.ppp[1].ppp rcvdPkFromHl:sum(packetBytes) 144872
scalar MultiCell.pgw.ppp[1].ppp passedUpPk:count 0
scalar MultiCell.pgw.ppp[1].ppp passedUpPk:sum(packetBytes) 0
scalar MultiCell.pgw.ppp[1].ppp packetDropIncorrectlyReceived:count 0
scalar MultiCell.pgw.ppp[1].ppp packetDropIncorrectlyReceived:sum(packetBytes) 0
scalar MultiCell.pgw.ppp[1].ppp packetDropInterfaceDown:count 0
scalar MultiCell.pgw.ppp[1].ppp packetDropInterfaceDown:sum(packetBytes) 0
scalar MultiCell.pgw.ppp[1] packetDropInterfaceDown:count 0
scalar MultiCell.pgw.ppp[1] packetDropInterfaceDown:sum(packetBytes) 0
scalar MultiCell.pgw.ppp[1] packetDropNoCarrier:count 0
scalar MultiCell.pgw.ppp[1] packetDropNoCarrier:sum(packetBytes) 0
scalar MultiCell.pgw.ipv4.ip packetDropAddressResolutionFailed:count 0
scalar MultiCell.pgw.ipv4.ip packetDropAddressResolutionFailed:sum(packetBytes) 0
scalar MultiCell.pgw.ipv4.ip packetDropHopLimitReached:count 0
scalar MultiCell.pgw.ipv4.ip packetDropHopLimitReached:sum(packetBytes) 0
scalar MultiCell.pgw.ipv4.ip packetDropForwardingDisabled:count 0
scalar MultiCell.pgw.ipv4.ip packetDropForwardingDisabled:sum(packetBytes) 0
scalar MultiCell.pgw.ipv4.ip packetDropNoInterfaceFound:count 0
scalar MultiCell.pgw.ipv4.ip packetDropNoInterfaceFound:sum(packetBytes) 0
scalar MultiCell.pgw.ipv4.ip packetDropNoRouteFound:count 0
scalar MultiCell.pgw.ipv4.ip packetDropNoRouteFound:sum(packetBytes) 0
scalar MultiCell.pgw.ipv4.ip packetDropUndefined:count 0
scalar MultiCell.pgw.ipv4.ip packetDropUndefined:sum(packetBytes) 0
scalar MultiCell.pgw.ipv4.arp arpResolutionFailed:count 0
scalar MultiCell.pgw.ipv4.arp arpResolutionCompleted:count 0
scalar MultiCell.pgw.ipv4.arp arpResolutionInitiated:count 0
scalar MultiCell.pgw.ipv4.arp arpReplySent:count 0
scalar MultiCell.pgw.ipv4.arp arpReplySent:sum(packetBytes) 0
scalar MultiCell.pgw.ipv4.arp arpRequestSent:count 0
scalar MultiCell.pgw.ipv4.arp arpRequestSent:sum(packetBytes) 0
scalar MultiCell.pgw.pppIf.queue queueLength:last 0
scalar MultiCell.pgw.pppIf.queue queueLength:max 0
scalar MultiCell.pgw.pppIf.queue queueLength:timeavg 0
scalar MultiCell.pgw.pppIf.queue queueBitLength:last 0
scalar MultiCell.pgw.pppIf.queue queueBitLength:max 0
scalar MultiCell.pgw.pppIf.queue queueBitLength:timeavg 0
scalar MultiCell.pgw.pppIf.queue outgoingPackets:count 0
scalar MultiCell.pgw.pppIf.queue outgoingPacketLengths:sum 0
scalar MultiCell.pgw.pppIf.queue incomingPackets:count 0
scalar MultiCell.pgw.pppIf.queue incomingPacketLengths:sum 0
scalar MultiCell.pgw.pppIf.queue droppedPacketsQueueOverflow:count 0
scalar MultiCell.pgw.pppIf.queue droppedPacketLengthsQueueOverflow:sum 0
scalar MultiCell.pgw.pppIf.ppp transmissionState:timeavg 0
scalar MultiCell.pgw.pppIf.ppp rxPkOk:count 2912
scalar MultiCell.pgw.pppIf.ppp rxPkOk:sum(packetBytes) 218400
scalar MultiCell.pgw.pppIf.ppp txPk:count 0
scalar MultiCell.pgw.pppIf.ppp txPk:sum(packetBytes) 0
scalar MultiCell.pgw.pppIf.ppp rcvdPkFromHl:count 0
scalar MultiCell.pgw.pppIf.ppp rcvdPkFromHl:sum(packetBytes) 0
scalar MultiCell.pgw.pppIf.ppp passedUpPk:count 2912
scalar MultiCell.pgw.pppIf.ppp passedUpPk:sum(packetBytes) 198016
scalar MultiCell.pgw.pppIf.ppp packetDropIncorrectlyReceived:count 0
scalar MultiCell.pgw.pppIf.ppp packetDropIncorrectlyReceived:sum(packetBytes) 0
scalar MultiCell.pgw.pppIf.ppp packetDropInterfaceDown:count 0
scalar MultiCell.pgw.pppIf.ppp packetDropInterfaceDown:sum(packetBytes) 0
scalar MultiCell.pgw.pppIf packetDropInterfaceDown:count 0
scalar MultiCell.pgw.pppIf packetDropInterfaceDown:sum(packetBytes) 0
scalar MultiCell.pgw.pppIf packetDropNoCarrier:count 0
scalar MultiCell.pgw.pppIf packetDropNoCarrier:sum(packetBytes) 0
scalar MultiCell.pgw.udp packetReceived:count 0
scalar MultiCell.pgw.udp packetReceived:sum(packetBytes) 0
scalar MultiCell.pgw.udp packetSent:count 2912
scalar MultiCell.pgw.udp packetSent:sum(packetBytes) 244608
scalar MultiCell.pgw.udp passedUpPk:count 0
scalar MultiCell.pgw.udp droppedPkWrongPort:count 0
scalar MultiCell.pgw.udp droppedPkBadChecksum:count 0
scalar MultiCell.router.lo[0].lo rcvdPkFromHl:count 0
scalar MultiCell.router.lo[0].lo rcvdPkFromHl:sum(packetBytes) 0
scalar MultiCell.router.lo[0].lo passedUpPk:count 0
scalar MultiCell.router.lo[0].lo passedUpPk:sum(packetBytes) 0
scalar MultiCell.router.lo[0] packetDropInterfaceDown:count 0
scalar MultiCell.router.lo[0] packetDropInterfaceDown:sum(packetBytes) 0
scalar MultiCell.router.lo[0] packetDropNoCarrier:count 0
scalar MultiCell.router.lo[0] packetDropNoCarrier:sum(packetBytes) 0
scalar MultiCell.router.ppp[0].queue queueLength:last 0
scalar MultiCell.router.ppp[0].queue queueLength:max 0
scalar MultiCell.router.ppp[0].queue queueLength:timeavg 0
scalar MultiCell.router.ppp[0].queue queueBitLength:last 0
scalar MultiCell.router.ppp[0].queue queueBitLength:max 0
scalar MultiCell.router.ppp[0].queue queueBitLength:timeavg 0
scalar MultiCell.router.ppp[0].queue outgoingPackets:count 0
scalar MultiCell.router.ppp[0].queue outgoingPacketLengths:sum 0
scalar MultiCell.router.ppp[0].queue incomingPackets:count 0
scalar MultiCell.router.ppp[0].queue incomingPacketLengths:sum 0
scalar MultiCell.router.ppp[0].queue droppedPacketsQueueOverflow:count 0
scalar MultiCell.router.ppp[0].queue droppedPacketLengthsQueueOverflow:sum 0
scalar MultiCell.router.ppp[0].ppp transmissionState:timeavg 0
scalar MultiCell.router.ppp[0].ppp rxPkOk:count 2912
scalar MultiCell.router.ppp[0].ppp rxPkOk:sum(packetBytes) 218400
scalar MultiCell.router.ppp[0].ppp txPk:count 0
scalar MultiCell.router.ppp[0].ppp txPk:sum(packetBytes) 0
scalar MultiCell.router.ppp[0].ppp rcvdPkFromHl:count 0
scalar MultiCell.router.ppp[0].ppp rcvdPkFromHl:sum(packetBytes) 0
scalar MultiCell.router.ppp[0].ppp passedUpPk:count 2912
scalar MultiCell.router.ppp[0].ppp passedUpPk:sum(packetBytes) 198016
scalar MultiCell.router.ppp[0].ppp packetDropIncorrectlyReceived:count 0
scalar MultiCell.router.ppp[0].ppp packetDropIncorrectlyReceived:sum(packetBytes) 0
scalar MultiCell.router.ppp[0].ppp packetDropInterfaceDown:count 0
scalar MultiCell.router.ppp[0].ppp packetDropInterfaceDown:sum(packetBytes) 0
scalar MultiCell.router.ppp[0] packetDropInterfaceDown:count 0
scalar MultiCell.router.ppp[0] packetDropInterfaceDown:sum(packetBytes) 0
scalar MultiCell.router.ppp[0] packetDropNoCarrier:count 0
scalar MultiCell.router.ppp[0] packetDropNoCarrier:sum(packetBytes) 0
scalar MultiCell.router.ppp[1].queue queueLength:last 0
scalar MultiCell.router.ppp[1].queue queueLength:max 0
scalar MultiCell.router.ppp[1].queue queueLength:timeavg 0
scalar MultiCell.router.ppp[1].queue queueBitLength:last 0
scalar MultiCell.router.ppp[1].queue queueBitLength:max 0
scalar MultiCell.router.ppp[1].queue queueBitLength:timeavg 0
scalar MultiCell.router.ppp[1].queue outgoingPackets:count 2912
scalar MultiCell.router.ppp[1].queue outgoingPacketLengths:sum 1584128
scalar MultiCell.router.ppp[1].queue incomingPackets:count 2912
scalar MultiCell.router.ppp[1].queue incomingPacketLengths:sum 1584128
scalar MultiCell.router.ppp[1].queue droppedPacketsQueueOverflow:count 0
scalar MultiCell.router.ppp[1].queue droppedPacketLengthsQueueOverflow:sum 0
scalar MultiCell.router.ppp[1].ppp transmissionState:timeavg 8.7359999999996856e-06
scalar MultiCell.router.ppp[1].ppp rxPkOk:count 0
scalar MultiCell.router.ppp[1].ppp rxPkOk:sum(packetBytes) 0
scalar MultiCell.router.ppp[1].ppp txPk:count 2912
scalar MultiCell.router.ppp[1].ppp txPk:sum(packetBytes) 218400
scalar MultiCell.router.ppp[1].ppp rcvdPkFromHl:count 2912
scalar MultiCell.router.ppp[1].ppp rcvdPkFromHl:sum(packetBytes) 198016
scalar MultiCell.router.ppp[1].ppp passedUpPk:count 0
scalar MultiCell.router.ppp[1].ppp passedUpPk:sum(packetBytes) 0
scalar MultiCell.router.ppp[1].ppp packetDropIncorrectlyReceived:count 0
scalar MultiCell.router.ppp[1].ppp packetDropIncorrectlyReceived:sum(packetBytes) 0
scalar MultiCell.router.ppp[1].ppp packetDropInterfaceDown:count 0
scalar MultiCell.router.ppp[1].ppp packetDropInterfaceDown:sum(packetBytes) 0
scalar MultiCell.router.ppp[1] packetDropInterfaceDown:count 0
scalar MultiCell.router.ppp[1] packetDropInterfaceDown:sum(packetBytes) 0
scalar MultiCell.router.ppp[1] packetDropNoCarrier:count 0
scalar MultiCell.router.ppp[1] packetDropNoCarrier:sum(packetBytes) 0
scalar MultiCell.router.ipv4.ip packetDropAddressResolutionFailed:count 0
scalar MultiCell.router.ipv4.ip packetDropAddressResolutionFailed:sum(packetBytes) 0
scalar MultiCell.router.ipv4.ip packetDropHopLimitReached:count 0
scalar MultiCell.router.ipv4.ip packetDropHopLimitReached:sum(packetBytes) 0
scalar MultiCell.router.ipv4.ip packetDropForwardingDisabled:count 0
scalar MultiCell.router.ipv4.ip packetDropForwardingDisabled:sum(packetBytes) 0
scalar MultiCell.router.ipv4.ip packetDropNoInterfaceFound:count 0
scalar MultiCell.router.ipv4.ip packetDropNoInterfaceFound:sum(packetBytes) 0
scalar MultiCell.router.ipv4.ip packetDropNoRouteFound:count 0
scalar MultiCell.router.ipv4.ip packetDropNoRouteFound:sum(packetBytes) 0
scalar MultiCell.router.ipv4.ip packetDropUndefined:count 0
scalar MultiCell.router.ipv4.ip packetDropUndefined:sum(packetBytes) 0
scalar MultiCell.router.ipv4.arp arpResolutionFailed:count 0
scalar MultiCell.router.ipv4.arp arpResolutionCompleted:count 0
scalar MultiCell.router.ipv4.arp arpResolutionInitiated:count 0
scalar MultiCell.router.ipv4.arp arpReplySent:count 0
scalar MultiCell.router.ipv4.arp arpReplySent:sum(packetBytes) 0
scalar MultiCell.router.ipv4.arp arpRequestSent:count 0
scalar MultiCell.router.ipv4.arp arpRequestSent:sum(packetBytes) 0
scalar MultiCell.eNodeB1.cellularNic.pdcp sentPacketToLowerLayer:count 1519
scalar MultiCell.eNodeB1.cellularNic.pdcp sentPacketToLowerLayer:sum(packetBytes) 104811
scalar MultiCell.eNodeB1.cellularNic.pdcp sentPacketToUpperLayer:count 0
scalar MultiCell.eNodeB1.cellularNic.pdcp sentPacketToUpperLayer:sum(packetBytes) 0
scalar MultiCell.eNodeB1.cellularNic.pdcp receivedPacketFromLowerLayer:count 0
scalar MultiCell.eNodeB1.cellularNic.pdcp receivedPacketFromLowerLayer:sum(packetBytes) 0
scalar MultiCell.eNodeB1.cellularNic.pdcp receivedPacketFromUpperLayer:count 1519
scalar MultiCell.eNodeB1.cellularNic.pdcp receivedPacketFromUpperLayer:sum(packetBytes) 103292
scalar MultiCell.eNodeB1.cellularNic.rlc.tm rlcPacketLossUl:mean -nan
scalar MultiCell.eNodeB1.cellularNic.rlc.tm rlcPacketLossUl:sum 0
scalar MultiCell.eNodeB1.cellularNic.rlc.tm rlcPacketLossDl:mean -nan
scalar MultiCell.eNodeB1.cellularNic.rlc.tm rlcPacketLossDl:sum 0
scalar MultiCell.eNodeB1.cellularNic.rlc.tm sentPacketToLowerLayer:count 0
scalar MultiCell.eNodeB1.cellularNic.rlc.tm sentPacketToLowerLayer:sum(packetBytes) 0
scalar MultiCell.eNodeB1.cellularNic.rlc.tm sentPacketToUpperLayer:count 0
scalar MultiCell.eNodeB1.cellularNic.rlc.tm sentPacketToUpperLayer:sum(packetBytes) 0
scalar MultiCell.eNodeB1.cellularNic.rlc.tm receivedPacketFromLowerLayer:count 0
scalar MultiCell.eNodeB1.cellularNic.rlc.tm receivedPacketFromLowerLayer:sum(packetBytes) 0
scalar MultiCell.eNodeB1.cellularNic.rlc.tm receivedPacketFromUpperLayer:count 0
scalar MultiCell.eNodeB1.cellularNic.rlc.tm receivedPacketFromUpperLayer:sum(packetBytes) 0
scalar MultiCell.eNodeB1.cellularNic.rlc.um rlcPacketLossTotal:mean -nan
scalar MultiCell.eNodeB1.cellularNic.rlc.um rlcCellThroughputUl:mean -nan
scalar MultiCell.eNodeB1.cellularNic.rlc.um rlcCellThroughputDl:mean 10278.458016690756
scalar MultiCell.eNodeB1.cellularNic.rlc.um rlcPduThroughputUl:mean -nan
scalar MultiCell.eNodeB1.cellularNic.rlc.um rlcPduThroughputDl:mean -nan
scalar MultiCell.eNodeB1.cellularNic.rlc.um rlcPduDelayUl:mean -nan
scalar MultiCell.eNodeB1.cellularNic.rlc.um rlcPduDelayDl:mean -nan
scalar MultiCell.eNodeB1.cellularNic.rlc.um rlcThroughputUl:mean -nan
scalar MultiCell.eNodeB1.cellularNic.rlc.um rlcThroughputDl:mean -nan
scalar MultiCell.eNodeB1.cellularNic.rlc.um rlcDelayUl:mean -nan
scalar MultiCell.eNodeB1.cellularNic.rlc.um rlcDelayDl:mean -nan
scalar MultiCell.eNodeB1.cellularNic.rlc.um rlcPduPacketLossUl:mean -nan
scalar MultiCell.eNodeB1.cellularNic.rlc.um rlcPduPacketLossDl:mean -nan
scalar MultiCell.eNodeB1.cellularNic.rlc.um rlcPacketLossUl:mean -nan
scalar MultiCell.eNodeB1.cellularNic.rlc.um rlcPacketLossUl:sum 0
scalar MultiCell.eNodeB1.cellularNic.rlc.um rlcPacketLossDl:mean -nan
scalar MultiCell.eNodeB1.cellularNic.rlc.um rlcPacketLossDl:sum 0
scalar MultiCell.eNodeB1.cellularNic.rlc.um rlcCellPacketLossUl:mean -nan
scalar MultiCell.eNodeB1.cellularNic.rlc.um rlcCellPacketLossDl:mean 0
scalar MultiCell.eNodeB1.cellularNic.rlc.um sentPacketToLowerLayer:count 1576
scalar MultiCell.eNodeB1.cellularNic.rlc.um sentPacketToLowerLayer:sum(packetBytes) 107963
scalar MultiCell.eNodeB1.cellularNic.rlc.um sentPacketToUpperLayer:count 0
scalar MultiCell.eNodeB1.cellularNic.rlc.um sentPacketToUpperLayer:sum(packetBytes) 0
scalar MultiCell.eNodeB1.cellularNic.rlc.um receivedPacketFromLowerLayer:count 0
scalar MultiCell.eNodeB1.cellularNic.rlc.um receivedPacketFromLowerLayer:sum(packetBytes) 0
scalar MultiCell.eNodeB1.cellularNic.rlc.um receivedPacketFromUpperLayer:count 1519
scalar MultiCell.eNodeB1.cellularNic.rlc.um receivedPacketFromUpperLayer:sum(packetBytes) 104811
scalar MultiCell.eNodeB1.cellularNic.rlc.am rlcPacketLossTotal:mean -nan
scalar MultiCell.eNodeB1.cellularNic.rlc.am rlcCellThroughputUl:mean -nan
scalar MultiCell.eNodeB1.cellularNic.rlc.am rlcCellThroughputDl:mean -nan
scalar MultiCell.eNodeB1.cellularNic.rlc.am rlcPduThroughputUl:mean -nan
scalar MultiCell.eNodeB1.cellularNic.rlc.am rlcPduThroughputDl:mean -nan
scalar MultiCell.eNodeB1.cellularNic.rlc.am rlcPduDelayUl:mean -nan
scalar MultiCell.eNodeB1.cellularNic.rlc.am rlcPduDelayDl:mean -nan
scalar MultiCell.eNodeB1.cellularNic.rlc.am rlcThroughputUl:mean -nan
scalar MultiCell.eNodeB1.cellularNic.rlc.am rlcThroughputDl:mean -nan
scalar MultiCell.eNodeB1.cellularNic.rlc.am rlcDelayUl:mean -nan
scalar MultiCell.eNodeB1.cellularNic.rlc.am rlcDelayDl:mean -nan
scalar MultiCell.eNodeB1.cellularNic.rlc.am rlcPduPacketLossUl:mean -nan
scalar MultiCell.eNodeB1.cellularNic.rlc.am rlcPduPacketLossDl:mean -nan
scalar MultiCell.eNodeB1.cellularNic.rlc.am rlcPacketLossUl:mean -nan
scalar MultiCell.eNodeB1.cellularNic.rlc.am rlcPacketLossDl:mean -nan
scalar MultiCell.eNodeB1.cellularNic.rlc.am rlcCellPacketLossUl:mean -nan
scalar MultiCell.eNodeB1.cellularNic.rlc.am rlcCellPacketLossDl:mean -nan
scalar MultiCell.eNodeB1.cellularNic.mac avgServedBlocksUl:mean 0
scalar MultiCell.eNodeB1.cellularNic.mac avgServedBlocksDl:mean 0.095299999999999996
scalar MultiCell.eNodeB1.cellularNic.mac harqTxAttemptsUl:mean -nan
scalar MultiCell.eNodeB1.cellularNic.mac harqTxAttemptsDl:mean -nan
scalar MultiCell.eNodeB1.cellularNic.mac harqErrorRate_4th_Ul:mean -nan
scalar MultiCell.eNodeB1.cellularNic.mac harqErrorRate_4th_Dl:mean -nan
scalar MultiCell.eNodeB1.cellularNic.mac harqErrorRate_3rd_Ul:mean -nan
scalar MultiCell.eNodeB1.cellularNic.mac harqErrorRate_3rd_Dl:mean -nan
scalar MultiCell.eNodeB1.cellularNic.mac harqErrorRate_2nd_Ul:mean -nan
scalar MultiCell.eNodeB1.cellularNic.mac harqErrorRate_2nd_Dl:mean -nan
scalar MultiCell.eNodeB1.cellularNic.mac harqErrorRate_1st_Ul:mean -nan
scalar MultiCell.eNodeB1.cellularNic.mac harqErrorRate_1st_Dl:mean -nan
scalar MultiCell.eNodeB1.cellularNic.mac harqErrorRateUl:mean -nan
scalar MultiCell.eNodeB1.cellularNic.mac harqErrorRateDl:mean -nan
scalar MultiCell.eNodeB1.cellularNic.mac macCellPacketLossUl:mean -nan
scalar MultiCell.eNodeB1.cellularNic.mac macCellPacketLossDl:mean 0
scalar MultiCell.eNodeB1.cellularNic.mac macPacketLossUl:mean -nan
scalar MultiCell.eNodeB1.cellularNic.mac macPacketLossDl:mean -nan
scalar MultiCell.eNodeB1.cellularNic.mac macThroughputUl:mean -nan
scalar MultiCell.eNodeB1.cellularNic.mac macThroughputDl:mean -nan
scalar MultiCell.eNodeB1.cellularNic.mac macDelayUl:mean -nan
scalar MultiCell.eNodeB1.cellularNic.mac macDelayDl:mean -nan
scalar MultiCell.eNodeB1.cellularNic.mac macCellThroughputUl:mean -nan
scalar MultiCell.eNodeB1.cellularNic.mac macCellThroughputDl:mean 10888.472660449355
scalar MultiCell.eNodeB1.cellularNic.mac sentPacketToLowerLayer:count 1576
scalar MultiCell.eNodeB1.cellularNic.mac sentPacketToLowerLayer:sum(packetBytes) 111115
scalar MultiCell.eNodeB1.cellularNic.mac sentPacketToUpperLayer:count 1576
scalar MultiCell.eNodeB1.cellularNic.mac sentPacketToUpperLayer:sum(packetBytes) 1576
scalar MultiCell.eNodeB1.cellularNic.mac receivedPacketFromLowerLayer:count 8244
scalar MultiCell.eNodeB1.cellularNic.mac receivedPacketFromLowerLayer:sum(packetBytes) 8244
scalar MultiCell.eNodeB1.cellularNic.mac receivedPacketFromUpperLayer:count 3095
scalar MultiCell.eNodeB1.cellularNic.mac receivedPacketFromUpperLayer:sum(packetBytes) 215812
scalar MultiCell.eNodeB1.cellularNic.mac macBufferOverFlowD2D:mean -nan
scalar MultiCell.eNodeB1.cellularNic.mac macBufferOverFlowUl:mean -nan
scalar MultiCell.eNodeB1.cellularNic.mac macBufferOverFlowDl:mean -nan
scalar MultiCell.eNodeB1.cellularNic.channelModel[0] measuredSinrUl:mean -nan
scalar MultiCell.eNodeB1.cellularNic.channelModel[0] measuredSinrDl:mean -nan
scalar MultiCell.eNodeB1.cellularNic.channelModel[0] rcvdSinrD2D:mean -nan
scalar MultiCell.eNodeB1.cellularNic.channelModel[0] rcvdSinrUl:mean -nan
scalar MultiCell.eNodeB1.cellularNic.channelModel[0] rcvdSinrDl:mean -nan
scalar MultiCell.eNodeB1.cellularNic packetDropInterfaceDown:count 0
scalar MultiCell.eNodeB1.cellularNic packetDropInterfaceDown:sum(packetBytes) 0
scalar MultiCell.eNodeB1.cellularNic packetDropNoCarrier:count 0
scalar MultiCell.eNodeB1.cellularNic packetDropNoCarrier:sum(packetBytes) 0
scalar MultiCell.eNodeB1.pppIf.queue queueLength:last 0
scalar MultiCell.eNodeB1.pppIf.queue queueLength:max 0
scalar MultiCell.eNodeB1.pppIf.queue queueLength:timeavg 0
scalar MultiCell.eNodeB1.pppIf.queue queueBitLength:last 0
scalar MultiCell.eNodeB1.pppIf.queue queueBitLength:max 0
scalar MultiCell.eNodeB1.pppIf.queue queueBitLength:timeavg 0
scalar MultiCell.eNodeB1.pppIf.queue outgoingPackets:count 0
scalar MultiCell.eNodeB1.pppIf.queue outgoingPacketLengths:sum 0
scalar MultiCell.eNodeB1.pppIf.queue incomingPackets:count 0
scalar MultiCell.eNodeB1.pppIf.queue incomingPacketLengths:sum 0
scalar MultiCell.eNodeB1.pppIf.queue droppedPacketsQueueOverflow:count 0
scalar MultiCell.eNodeB1.pppIf.queue droppedPacketLengthsQueueOverflow:sum 0
scalar MultiCell.eNodeB1.pppIf.ppp transmissionState:timeavg 0
scalar MultiCell.eNodeB1.pppIf.ppp rxPkOk:count 1519
scalar MultiCell.eNodeB1.pppIf.ppp rxPkOk:sum(packetBytes) 168609
scalar MultiCell.eNodeB1.pppIf.ppp txPk:count 0
scalar MultiCell.eNodeB1.pppIf.ppp txPk:sum(packetBytes) 0
scalar MultiCell.eNodeB1.pppIf.ppp rcvdPkFromHl:count 0
scalar MultiCell.eNodeB1.pppIf.ppp rcvdPkFromHl:sum(packetBytes) 0
scalar MultiCell.eNodeB1.pppIf.ppp passedUpPk:count 1519
scalar MultiCell.eNodeB1.pppIf.ppp passedUpPk:sum(packetBytes) 157976
scalar MultiCell.eNodeB1.pppIf.ppp packetDropIncorrectlyReceived:count 0
scalar MultiCell.eNodeB1.pppIf.ppp packetDropIncorrectlyReceived:sum(packetBytes) 0
scalar MultiCell.eNodeB1.pppIf.ppp packetDropInterfaceDown:count 0
scalar MultiCell.eNodeB1.pppIf.ppp packetDropInterfaceDown:sum(packetBytes) 0
scalar MultiCell.eNodeB1.pppIf packetDropInterfaceDown:count 0
scalar MultiCell.eNodeB1.pppIf packetDropInterfaceDown:sum(packetBytes) 0
scalar MultiCell.eNodeB1.pppIf packetDropNoCarrier:count 0
scalar MultiCell.eNodeB1.pppIf packetDropNoCarrier:sum(packetBytes) 0
scalar MultiCell.eNodeB1.x2ppp[0].queue queueLength:last 0
scalar MultiCell.eNodeB1.x2ppp[0].queue queueLength:max 0
scalar MultiCell.eNodeB1.x2ppp[0].queue queueLength:timeavg 0
scalar MultiCell.eNodeB1.x2ppp[0].queue queueBitLength:last 0
scalar MultiCell.eNodeB1.x2ppp[0].queue queueBitLength:max 0
scalar MultiCell.eNodeB1.x2ppp[0].queue queueBitLength:timeavg 0
scalar MultiCell.eNodeB1.x2ppp[0].queue outgoingPackets:count 0
scalar MultiCell.eNodeB1.x2ppp[0].queue outgoingPacketLengths:sum 0
scalar MultiCell.eNodeB1.x2ppp[0].queue incomingPackets:count 0
scalar MultiCell.eNodeB1.x2ppp[0].queue incomingPacketLengths:sum 0
scalar MultiCell.eNodeB1.x2ppp[0].queue droppedPacketsQueueOverflow:count 0
scalar MultiCell.eNodeB1.x2ppp[0].queue droppedPacketLengthsQueueOverflow:sum 0
scalar MultiCell.eNodeB1.x2ppp[0].ppp transmissionState:timeavg 0
scalar MultiCell.eNodeB1.x2ppp[0].ppp rxPkOk:count 0
scalar MultiCell.eNodeB1.x2ppp[0].ppp rxPkOk:sum(packetBytes) 0
scalar MultiCell.eNodeB1.x2ppp[0].ppp txPk:count 0
scalar MultiCell.eNodeB1.x2ppp[0].ppp txPk:sum(packetBytes) 0
scalar MultiCell.eNodeB1.x2ppp[0].ppp rcvdPkFromHl:count 0
scalar MultiCell.eNodeB1.x2ppp[0].ppp rcvdPkFromHl:sum(packetBytes) 0
scalar MultiCell.eNodeB1.x2ppp[0].ppp passedUpPk:count 0
scalar MultiCell.eNodeB1.x2ppp[0].ppp passedUpPk:sum(packetBytes) 0
scalar MultiCell.eNodeB1.x2ppp[0].ppp packetDropIncorrectlyReceived:count 0
scalar MultiCell.eNodeB1.x2ppp[0].ppp packetDropIncorrectlyReceived:sum(packetBytes) 0
scalar MultiCell.eNodeB1.x2ppp[0].ppp packetDropInterfaceDown:count 0
scalar MultiCell.eNodeB1.x2ppp[0].ppp packetDropInterfaceDown:sum(packetBytes) 0
scalar MultiCell.eNodeB1.x2ppp[0] packetDropInterfaceDown:count 0
scalar MultiCell.eNodeB1.x2ppp[0] packetDropInterfaceDown:sum(packetBytes) 0
scalar MultiCell.eNodeB1.x2ppp[0] packetDropNoCarrier:count 0
scalar MultiCell.eNodeB1.x2ppp[0] packetDropNoCarrier:sum(packetBytes) 0
scalar MultiCell.eNodeB1.pppMEHostIf.queue queueLength:last 0
scalar MultiCell.eNodeB1.pppMEHostIf.queue queueLength:max 0
scalar MultiCell.eNodeB1.pppMEHostIf.queue queueLength:timeavg 0
scalar MultiCell.eNodeB1.pppMEHostIf.queue queueBitLength:last 0
scalar MultiCell.eNodeB1.pppMEHostIf.queue queueBitLength:max 0
scalar MultiCell.eNodeB1.pppMEHostIf.queue queueBitLength:timeavg 0
scalar MultiCell.eNodeB1.pppMEHostIf.queue outgoingPackets:count 0
scalar MultiCell.eNodeB1.pppMEHostIf.queue outgoingPacketLengths:sum 0
scalar MultiCell.eNodeB1.pppMEHostIf.queue incomingPackets:count 0
scalar MultiCell.eNodeB1.pppMEHostIf.queue incomingPacketLengths:sum 0
scalar MultiCell.eNodeB1.pppMEHostIf.queue droppedPacketsQueueOverflow:count 0
scalar MultiCell.eNodeB1.pppMEHostIf.queue droppedPacketLengthsQueueOverflow:sum 0
scalar MultiCell.eNodeB1.pppMEHostIf.ppp transmissionState:timeavg 0
scalar MultiCell.eNodeB1.pppMEHostIf.ppp rxPkOk:count 0
scalar MultiCell.eNodeB1.pppMEHostIf.ppp rxPkOk:sum(packetBytes) 0
scalar MultiCell.eNodeB1.pppMEHostIf.ppp txPk:count 0
scalar MultiCell.eNodeB1.pppMEHostIf.ppp txPk:sum(packetBytes) 0
scalar MultiCell.eNodeB1.pppMEHostIf.ppp rcvdPkFromHl:count 0
scalar MultiCell.eNodeB1.pppMEHostIf.ppp rcvdPkFromHl:sum(packetBytes) 0
scalar MultiCell.eNodeB1.pppMEHostIf.ppp passedUpPk:count 0
scalar MultiCell.eNodeB1.pppMEHostIf.ppp passedUpPk:sum(packetBytes) 0
scalar MultiCell.eNodeB1.pppMEHostIf.ppp packetDropIncorrectlyReceived:count 0
scalar MultiCell.eNodeB1.pppMEHostIf.ppp packetDropIncorrectlyReceived:sum(packetBytes) 0
scalar MultiCell.eNodeB1.pppMEHostIf.ppp packetDropInterfaceDown:count 0
scalar MultiCell.eNodeB1.pppMEHostIf.ppp packetDropInterfaceDown:sum(packetBytes) 0
scalar MultiCell.eNodeB1.pppMEHostIf packetDropInterfaceDown:count 0
scalar MultiCell.eNodeB1.pppMEHostIf packetDropInterfaceDown:sum(packetBytes) 0
scalar MultiCell.eNodeB1.pppMEHostIf packetDropNoCarrier:count 0
scalar MultiCell.eNodeB1.pppMEHostIf packetDropNoCarrier:sum(packetBytes) 0
scalar MultiCell.eNodeB1.ipv4.ip packetDropAddressResolutionFailed:count 0
scalar MultiCell.eNodeB1.ipv4.ip packetDropAddressResolutionFailed:sum(packetBytes) 0
scalar MultiCell.eNodeB1.ipv4.ip packetDropHopLimitReached:count 0
scalar MultiCell.eNodeB1.ipv4.ip packetDropHopLimitReached:sum(packetBytes) 0
scalar MultiCell.eNodeB1.ipv4.ip packetDropForwardingDisabled:count 0
scalar MultiCell.eNodeB1.ipv4.ip packetDropForwardingDisabled:sum(packetBytes) 0
scalar MultiCell.eNodeB1.ipv4.ip packetDropNoInterfaceFound:count 0
scalar MultiCell.eNodeB1.ipv4.ip packetDropNoInterfaceFound:sum(packetBytes) 0
scalar MultiCell.eNodeB1.ipv4.ip packetDropNoRouteFound:count 0
scalar MultiCell.eNodeB1.ipv4.ip packetDropNoRouteFound:sum(packetBytes) 0
scalar MultiCell.eNodeB1.ipv4.ip packetDropUndefined:count 0
scalar MultiCell.eNodeB1.ipv4.ip packetDropUndefined:sum(packetBytes) 0
scalar MultiCell.eNodeB1.ipv4.arp arpResolutionFailed:count 0
scalar MultiCell.eNodeB1.ipv4.arp arpResolutionCompleted:count 0
scalar MultiCell.eNodeB1.ipv4.arp arpResolutionInitiated:count 0
scalar MultiCell.eNodeB1.ipv4.arp arpReplySent:count 0
scalar MultiCell.eNodeB1.ipv4.arp arpReplySent:sum(packetBytes) 0
scalar MultiCell.eNodeB1.ipv4.arp arpRequestSent:count 0
scalar MultiCell.eNodeB1.ipv4.arp arpRequestSent:sum(packetBytes) 0
scalar MultiCell.eNodeB1.udp packetReceived:count 1519
scalar MultiCell.eNodeB1.udp packetReceived:sum(packetBytes) 127596
scalar MultiCell.eNodeB1.udp packetSent:count 0
scalar MultiCell.eNodeB1.udp packetSent:sum(packetBytes) 0
scalar MultiCell.eNodeB1.udp passedUpPk:count 1519
scalar MultiCell.eNodeB1.udp droppedPkWrongPort:count 0
scalar MultiCell.eNodeB1.udp droppedPkBadChecksum:count 0
scalar MultiCell.eNodeB2.cellularNic.pdcp sentPacketToLowerLayer:count 1393
scalar MultiCell.eNodeB2.cellularNic.pdcp sentPacketToLowerLayer:sum(packetBytes) 96117
scalar MultiCell.eNodeB2.cellularNic.pdcp sentPacketToUpperLayer:count 0
scalar MultiCell.eNodeB2.cellularNic.pdcp sentPacketToUpperLayer:sum(packetBytes) 0
scalar MultiCell.eNodeB2.cellularNic.pdcp receivedPacketFromLowerLayer:count 0
scalar MultiCell.eNodeB2.cellularNic.pdcp receivedPacketFromLowerLayer:sum(packetBytes) 0
scalar MultiCell.eNodeB2.cellularNic.pdcp receivedPacketFromUpperLayer:count 1393
scalar MultiCell.eNodeB2.cellularNic.pdcp receivedPacketFromUpperLayer:sum(packetBytes) 94724
scalar MultiCell.eNodeB2.cellularNic.rlc.tm rlcPacketLossUl:mean -nan
scalar MultiCell.eNodeB2.cellularNic.rlc.tm rlcPacketLossUl:sum 0
scalar MultiCell.eNodeB2.cellularNic.rlc.tm rlcPacketLossDl:mean -nan
scalar MultiCell.eNodeB2.cellularNic.rlc.tm rlcPacketLossDl:sum 0
scalar MultiCell.eNodeB2.cellularNic.rlc.tm sentPacketToLowerLayer:count 0
scalar MultiCell.eNodeB2.cellularNic.rlc.tm sentPacketToLowerLayer:sum(packetBytes) 0
scalar MultiCell.eNodeB2.cellularNic.rlc.tm sentPacketToUpperLayer:count 0
scalar MultiCell.eNodeB2.cellularNic.rlc.tm sentPacketToUpperLayer:sum(packetBytes) 0
scalar MultiCell.eNodeB2.cellularNic.rlc.tm receivedPacketFromLowerLayer:count 0
scalar MultiCell.eNodeB2.cellularNic.rlc.tm receivedPacketFromLowerLayer:sum(packetBytes) 0
scalar MultiCell.eNodeB2.cellularNic.rlc.tm receivedPacketFromUpperLayer:count 0
scalar MultiCell.eNodeB2.cellularNic.rlc.tm receivedPacketFromUpperLayer:sum(packetBytes) 0
scalar MultiCell.eNodeB2.cellularNic.rlc.um rlcPacketLossTotal:mean -nan
scalar MultiCell.eNodeB2.cellularNic.rlc.um rlcCellThroughputUl:mean -nan
scalar MultiCell.eNodeB2.cellularNic.rlc.um rlcCellThroughputDl:mean 10310.446584922513
scalar MultiCell.eNodeB2.cellularNic.rlc.um rlcPduThroughputUl:mean -nan
scalar MultiCell.eNodeB2.cellularNic.rlc.um rlcPduThroughputDl:mean -nan
scalar MultiCell.eNodeB2.cellularNic.rlc.um rlcPduDelayUl:mean -nan
scalar MultiCell.eNodeB2.cellularNic.rlc.um rlcPduDelayDl:mean -nan
scalar MultiCell.eNodeB2.cellularNic.rlc.um rlcThroughputUl:mean -nan
scalar MultiCell.eNodeB2.cellularNic.rlc.um rlcThroughputDl:mean -nan
scalar MultiCell.eNodeB2.cellularNic.rlc.um rlcDelayUl:mean -nan
scalar MultiCell.eNodeB2.cellularNic.rlc.um rlcDelayDl:mean -nan
scalar MultiCell.eNodeB2.cellularNic.rlc.um rlcPduPacketLossUl:mean -nan
scalar MultiCell.eNodeB2.cellularNic.rlc.um rlcPduPacketLossDl:mean -nan
scalar MultiCell.eNodeB2.cellularNic.rlc.um rlcPacketLossUl:mean -nan
scalar MultiCell.eNodeB2.cellularNic.rlc.um rlcPacketLossUl:sum 0
scalar MultiCell.eNodeB2.cellularNic.rlc.um rlcPacketLossDl:mean -nan
scalar MultiCell.eNodeB2.cellularNic.rlc.um rlcPacketLossDl:sum 0
scalar MultiCell.eNodeB2.cellularNic.rlc.um rlcCellPacketLossUl:mean -nan
scalar MultiCell.eNodeB2.cellularNic.rlc.um rlcCellPacketLossDl:mean 0
scalar MultiCell.eNodeB2.cellularNic.rlc.um sentPacketToLowerLayer:count 1451
scalar MultiCell.eNodeB2.cellularNic.rlc.um sentPacketToLowerLayer:sum(packetBytes) 99019
scalar MultiCell.eNodeB2.cellularNic.rlc.um sentPacketToUpperLayer:count 0
scalar MultiCell.eNodeB2.cellularNic.rlc.um sentPacketToUpperLayer:sum(packetBytes) 0
scalar MultiCell.eNodeB2.cellularNic.rlc.um receivedPacketFromLowerLayer:count 0
scalar MultiCell.eNodeB2.cellularNic.rlc.um receivedPacketFromLowerLayer:sum(packetBytes) 0
scalar MultiCell.eNodeB2.cellularNic.rlc.um receivedPacketFromUpperLayer:count 1393
scalar MultiCell.eNodeB2.cellularNic.rlc.um receivedPacketFromUpperLayer:sum(packetBytes) 96117
scalar MultiCell.eNodeB2.cellularNic.rlc.am rlcPacketLossTotal:mean -nan
scalar MultiCell.eNodeB2.cellularNic.rlc.am rlcCellThroughputUl:mean -nan
scalar MultiCell.eNodeB2.cellularNic.rlc.am rlcCellThroughputDl:mean -nan
scalar MultiCell.eNodeB2.cellularNic.rlc.am rlcPduThroughputUl:mean -nan
scalar MultiCell.eNodeB2.cellularNic.rlc.am rlcPduThroughputDl:mean -nan
scalar MultiCell.eNodeB2.cellularNic.rlc.am rlcPduDelayUl:mean -nan
scalar MultiCell.eNodeB2.cellularNic.rlc.am rlcPduDelayDl:mean -nan
scalar MultiCell.eNodeB2.cellularNic.rlc.am rlcThroughputUl:mean -nan
scalar MultiCell.eNodeB2.cellularNic.rlc.am rlcThroughputDl:mean -nan
scalar MultiCell.eNodeB2.cellularNic.rlc.am rlcDelayUl:mean -nan
scalar MultiCell.eNodeB2.cellularNic.rlc.am rlcDelayDl:mean -nan
scalar MultiCell.eNodeB2.cellularNic.rlc.am rlcPduPacketLossUl:mean -nan
scalar MultiCell.eNodeB2.cellularNic.rlc.am rlcPduPacketLossDl:mean -nan
scalar MultiCell.eNodeB2.cellularNic.rlc.am rlcPacketLossUl:mean -nan
scalar MultiCell.eNodeB2.cellularNic.rlc.am rlcPacketLossDl:mean -nan
scalar MultiCell.eNodeB2.cellularNic.rlc.am rlcCellPacketLossUl:mean -nan
scalar MultiCell.eNodeB2.cellularNic.rlc.am rlcCellPacketLossDl:mean -nan
scalar MultiCell.eNodeB2.cellularNic.mac avgServedBlocksUl:mean 0
scalar MultiCell.eNodeB2.cellularNic.mac avgServedBlocksDl:mean 0.24795
scalar MultiCell.eNodeB2.cellularNic.mac harqTxAttemptsUl:mean -nan
scalar MultiCell.eNodeB2.cellularNic.mac harqTxAttemptsDl:mean -nan
scalar MultiCell.eNodeB2.cellularNic.mac harqErrorRate_4th_Ul:mean -nan
scalar MultiCell.eNodeB2.cellularNic.mac harqErrorRate_4th_Dl:mean -nan
scalar MultiCell.eNodeB2.cellularNic.mac harqErrorRate_3rd_Ul:mean -nan
scalar MultiCell.eNodeB2.cellularNic.mac harqErrorRate_3rd_Dl:mean -nan
scalar MultiCell.eNodeB2.cellularNic.mac harqErrorRate_2nd_Ul:mean -nan
scalar MultiCell.eNodeB2.cellularNic.mac harqErrorRate_2nd_Dl:mean -nan
scalar MultiCell.eNodeB2.cellularNic.mac harqErrorRate_1st_Ul:mean -nan
scalar MultiCell.eNodeB2.cellularNic.mac harqErrorRate_1st_Dl:mean -nan
scalar MultiCell.eNodeB2.cellularNic.mac harqErrorRateUl:mean -nan
scalar MultiCell.eNodeB2.cellularNic.mac harqErrorRateDl:mean -nan
scalar MultiCell.eNodeB2.cellularNic.mac macCellPacketLossUl:mean -nan
scalar MultiCell.eNodeB2.cellularNic.mac macCellPacketLossDl:mean 0
scalar MultiCell.eNodeB2.cellularNic.mac macPacketLossUl:mean -nan
scalar MultiCell.eNodeB2.cellularNic.mac macPacketLossDl:mean -nan
scalar MultiCell.eNodeB2.cellularNic.mac macThroughputUl:mean -nan
scalar MultiCell.eNodeB2.cellularNic.mac macThroughputDl:mean -nan
scalar MultiCell.eNodeB2.cellularNic.mac macDelayUl:mean -nan
scalar MultiCell.eNodeB2.cellularNic.mac macDelayDl:mean -nan
scalar MultiCell.eNodeB2.cellularNic.mac macCellThroughputUl:mean -nan
scalar MultiCell.eNodeB2.cellularNic.mac macCellThroughputDl:mean 10933.352294980972
scalar MultiCell.eNodeB2.cellularNic.mac sentPacketToLowerLayer:count 1451
scalar MultiCell.eNodeB2.cellularNic.mac sentPacketToLowerLayer:sum(packetBytes) 101921
scalar MultiCell.eNodeB2.cellularNic.mac sentPacketToUpperLayer:count 1451
scalar MultiCell.eNodeB2.cellularNic.mac sentPacketToUpperLayer:sum(packetBytes) 1451
scalar MultiCell.eNodeB2.cellularNic.mac receivedPacketFromLowerLayer:count 8118
scalar MultiCell.eNodeB2.cellularNic.mac receivedPacketFromLowerLayer:sum(packetBytes) 8118
scalar MultiCell.eNodeB2.cellularNic.mac receivedPacketFromUpperLayer:count 2844
scalar MultiCell.eNodeB2.cellularNic.mac receivedPacketFromUpperLayer:sum(packetBytes) 197922
scalar MultiCell.eNodeB2.cellularNic.mac macBufferOverFlowD2D:mean -nan
scalar MultiCell.eNodeB2.cellularNic.mac macBufferOverFlowUl:mean -nan
scalar MultiCell.eNodeB2.cellularNic.mac macBufferOverFlowDl:mean -nan
scalar MultiCell.eNodeB2.cellularNic.channelModel[0] measuredSinrUl:mean -nan
scalar MultiCell.eNodeB2.cellularNic.channelModel[0] measuredSinrDl:mean -nan
scalar MultiCell.eNodeB2.cellularNic.channelModel[0] rcvdSinrD2D:mean -nan
scalar MultiCell.eNodeB2.cellularNic.channelModel[0] rcvdSinrUl:mean -nan
scalar MultiCell.eNodeB2.cellularNic.channelModel[0] rcvdSinrDl:mean -nan
scalar MultiCell.eNodeB2.cellularNic packetDropInterfaceDown:count 0
scalar MultiCell.eNodeB2.cellularNic packetDropInterfaceDown:sum(packetBytes) 0
scalar MultiCell.eNodeB2.cellularNic packetDropNoCarrier:count 0
scalar MultiCell.eNodeB2.cellularNic packetDropNoCarrier:sum(packetBytes) 0
scalar MultiCell.eNodeB2.pppIf.queue queueLength:last 0
scalar MultiCell.eNodeB2.pppIf.queue queueLength:max 0
scalar MultiCell.eNodeB2.pppIf.queue queueLength:timeavg 0
scalar MultiCell.eNodeB2.pppIf.queue queueBitLength:last 0
scalar MultiCell.eNodeB2.pppIf.queue queueBitLength:max 0
scalar MultiCell.eNodeB2.pppIf.queue queueBitLength:timeavg 0
scalar MultiCell.eNodeB2.pppIf.queue outgoingPackets:count 0
scalar MultiCell.eNodeB2.pppIf.queue outgoingPacketLengths:sum 0
scalar MultiCell.eNodeB2.pppIf.queue incomingPackets:count 0
scalar MultiCell.eNodeB2.pppIf.queue incomingPacketLengths:sum 0
scalar MultiCell.eNodeB2.pppIf.queue droppedPacketsQueueOverflow:count 0
scalar MultiCell.eNodeB2.pppIf.queue droppedPacketLengthsQueueOverflow:sum 0
scalar MultiCell.eNodeB2.pppIf.ppp transmissionState:timeavg 0
scalar MultiCell.eNodeB2.pppIf.ppp rxPkOk:count 1393
scalar MultiCell.eNodeB2.pppIf.ppp rxPkOk:sum(packetBytes) 154623
scalar MultiCell.eNodeB2.pppIf.ppp txPk:count 0
scalar MultiCell.eNodeB2.pppIf.ppp txPk:sum(packetBytes) 0
scalar MultiCell.eNodeB2.pppIf.ppp rcvdPkFromHl:count 0
scalar MultiCell.eNodeB2.pppIf.ppp rcvdPkFromHl:sum(packetBytes) 0
scalar MultiCell.eNodeB2.pppIf.ppp passedUpPk:count 1393
scalar MultiCell.eNodeB2.pppIf.ppp passedUpPk:sum(packetBytes) 144872
scalar MultiCell.eNodeB2.pppIf.ppp packetDropIncorrectlyReceived:count 0
scalar MultiCell.eNodeB2.pppIf.ppp packetDropIncorrectlyReceived:sum(packetBytes) 0
scalar MultiCell.eNodeB2.pppIf.ppp packetDropInterfaceDown:count 0
scalar MultiCell.eNodeB2.pppIf.ppp packetDropInterfaceDown:sum(packetBytes) 0
scalar MultiCell.eNodeB2.pppIf packetDropInterfaceDown:count 0
scalar MultiCell.eNodeB2.pppIf packetDropInterfaceDown:sum(packetBytes) 0
scalar MultiCell.eNodeB2.pppIf packetDropNoCarrier:count 0
scalar MultiCell.eNodeB2.pppIf packetDropNoCarrier:sum(packetBytes) 0
scalar MultiCell.eNodeB2.x2ppp[0].queue queueLength:last 0
scalar MultiCell.eNodeB2.x2ppp[0].queue queueLength:max 0
scalar MultiCell.eNodeB2.x2ppp[0].queue queueLength:timeavg 0
scalar MultiCell.eNodeB2.x2ppp[0].queue queueBitLength:last 0
scalar MultiCell.eNodeB2.x2ppp[0].queue queueBitLength:max 0
scalar MultiCell.eNodeB2.x2ppp[0].queue queueBitLength:timeavg 0
scalar MultiCell.eNodeB2.x2ppp[0].queue outgoingPackets:count 0
scalar MultiCell.eNodeB2.x2ppp[0].queue outgoingPacketLengths:sum 0
scalar MultiCell.eNodeB2.x2ppp[0].queue incomingPackets:count 0
scalar MultiCell.eNodeB2.x2ppp[0].queue incomingPacketLengths:sum 0
scalar MultiCell.eNodeB2.x2ppp[0].queue droppedPacketsQueueOverflow:count 0
scalar MultiCell.eNodeB2.x2ppp[0].queue droppedPacketLengthsQueueOverflow:sum 0
scalar MultiCell.eNodeB2.x2ppp[0].ppp transmissionState:timeavg 0
scalar MultiCell.eNodeB2.x2ppp[0].ppp rxPkOk:count 0
scalar MultiCell.eNodeB2.x2ppp[0].ppp rxPkOk:sum(packetBytes) 0
scalar MultiCell.eNodeB2.x2ppp[0].ppp txPk:count 0
scalar MultiCell.eNodeB2.x2ppp[0].ppp txPk:sum(packetBytes) 0
scalar MultiCell.eNodeB2.x2ppp[0].ppp rcvdPkFromHl:count 0
scalar MultiCell.eNodeB2.x2ppp[0].ppp rcvdPkFromHl:sum(packetBytes) 0
scalar MultiCell.eNodeB2.x2ppp[0].ppp passedUpPk:count 0
scalar MultiCell.eNodeB2.x2ppp[0].ppp passedUpPk:sum(packetBytes) 0
scalar MultiCell.eNodeB2.x2ppp[0].ppp packetDropIncorrectlyReceived:count 0
scalar MultiCell.eNodeB2.x2ppp[0].ppp packetDropIncorrectlyReceived:sum(packetBytes) 0
scalar MultiCell.eNodeB2.x2ppp[0].ppp packetDropInterfaceDown:count 0
scalar MultiCell.eNodeB2.x2ppp[0].ppp packetDropInterfaceDown:sum(packetBytes) 0
scalar MultiCell.eNodeB2.x2ppp[0] packetDropInterfaceDown:count 0
scalar MultiCell.eNodeB2.x2ppp[0] packetDropInterfaceDown:sum(packetBytes) 0
scalar MultiCell.eNodeB2.x2ppp[0] packetDropNoCarrier:count 0
scalar MultiCell.eNodeB2.x2ppp[0] packetDropNoCarrier:sum(packetBytes) 0
scalar MultiCell.eNodeB2.pppMEHostIf.queue queueLength:last 0
scalar MultiCell.eNodeB2.pppMEHostIf.queue queueLength:max 0
scalar MultiCell.eNodeB2.pppMEHostIf.queue queueLength:timeavg 0
scalar MultiCell.eNodeB2.pppMEHostIf.queue queueBitLength:last 0
scalar MultiCell.eNodeB2.pppMEHostIf.queue queueBitLength:max 0
scalar MultiCell.eNodeB2.pppMEHostIf.queue queueBitLength:timeavg 0
scalar MultiCell.eNodeB2.pppMEHostIf.queue outgoingPackets:count 0
scalar MultiCell.eNodeB2.pppMEHostIf.queue outgoingPacketLengths:sum 0
scalar MultiCell.eNodeB2.pppMEHostIf.queue incomingPackets:count 0
scalar MultiCell.eNodeB2.pppMEHostIf.queue incomingPacketLengths:sum 0
scalar MultiCell.eNodeB2.pppMEHostIf.queue droppedPacketsQueueOverflow:count 0
scalar MultiCell.eNodeB2.pppMEHostIf.queue droppedPacketLengthsQueueOverflow:sum 0
scalar MultiCell.eNodeB2.pppMEHostIf.ppp transmissionState:timeavg 0
scalar MultiCell.eNodeB2.pppMEHostIf.ppp rxPkOk:count 0
scalar MultiCell.eNodeB2.pppMEHostIf.ppp rxPkOk:sum(packetBytes) 0
scalar MultiCell.eNodeB2.pppMEHostIf.ppp txPk:count 0
scalar MultiCell.eNodeB2.pppMEHostIf.ppp txPk:sum(packetBytes) 0
scalar MultiCell.eNodeB2.pppMEHostIf.ppp rcvdPkFromHl:count 0
scalar MultiCell.eNodeB2.pppMEHostIf.ppp rcvdPkFromHl:sum(packetBytes) 0
scalar MultiCell.eNodeB2.pppMEHostIf.ppp passedUpPk:count 0
scalar MultiCell.eNodeB2.pppMEHostIf.ppp passedUpPk:sum(packetBytes) 0
scalar MultiCell.eNodeB2.pppMEHostIf.ppp packetDropIncorrectlyReceived:count 0
scalar MultiCell.eNodeB2.pppMEHostIf.ppp packetDropIncorrectlyReceived:sum(packetBytes) 0
scalar MultiCell.eNodeB2.pppMEHostIf.ppp packetDropInterfaceDown:count 0
scalar MultiCell.eNodeB2.pppMEHostIf.ppp packetDropInterfaceDown:sum(packetBytes) 0
scalar MultiCell.eNodeB2.pppMEHostIf packetDropInterfaceDown:count 0
scalar MultiCell.eNodeB2.pppMEHostIf packetDropInterfaceDown:sum(packetBytes) 0
scalar MultiCell.eNodeB2.pppMEHostIf packetDropNoCarrier:count 0
scalar MultiCell.eNodeB2.pppMEHostIf packetDropNoCarrier:sum(packetBytes) 0
scalar MultiCell.eNodeB2.ipv4.ip packetDropAddressResolutionFailed:count 0
scalar MultiCell.eNodeB2.ipv4.ip packetDropAddressResolutionFailed:sum(packetBytes) 0
scalar MultiCell.eNodeB2.ipv4.ip packetDropHopLimitReached:count 0
scalar MultiCell.eNodeB2.ipv4.ip packetDropHopLimitReached:sum(packetBytes) 0
scalar MultiCell.eNodeB2.ipv4.ip packetDropForwardingDisabled:count 0
scalar MultiCell.eNodeB2.ipv4.ip packetDropForwardingDisabled:sum(packetBytes) 0
scalar MultiCell.eNodeB2.ipv4.ip packetDropNoInterfaceFound:count 0
scalar MultiCell.eNodeB2.ipv4.ip packetDropNoInterfaceFound:sum(packetBytes) 0
scalar MultiCell.eNodeB2.ipv4.ip packetDropNoRouteFound:count 0
scalar MultiCell.eNodeB2.ipv4.ip packetDropNoRouteFound:sum(packetBytes) 0
scalar MultiCell.eNodeB2.ipv4.ip packetDropUndefined:count 0
scalar MultiCell.eNodeB2.ipv4.ip packetDropUndefined:sum(packetBytes) 0
scalar MultiCell.eNodeB2.ipv4.arp arpResolutionFailed:count 0
scalar MultiCell.eNodeB2.ipv4.arp arpResolutionCompleted:count 0
scalar MultiCell.eNodeB2.ipv4.arp arpResolutionInitiated:count 0
scalar MultiCell.eNodeB2.ipv4.arp arpReplySent:count 0
scalar MultiCell.eNodeB2.ipv4.arp arpReplySent:sum(packetBytes) 0
scalar MultiCell.eNodeB2.ipv4.arp arpRequestSent:count 0
scalar MultiCell.eNodeB2.ipv4.arp arpRequestSent:sum(packetBytes) 0
scalar MultiCell.eNodeB2.udp packetReceived:count 1393
scalar MultiCell.eNodeB2.udp packetReceived:sum(packetBytes) 117012
scalar MultiCell.eNodeB2.udp packetSent:count 0
scalar MultiCell.eNodeB2.udp packetSent:sum(packetBytes) 0
scalar MultiCell.eNodeB2.udp passedUpPk:count 1393
scalar MultiCell.eNodeB2.udp droppedPkWrongPort:count 0
scalar MultiCell.eNodeB2.udp droppedPkBadChecksum:count 0
scalar MultiCell.ue11.lo[0].lo rcvdPkFromHl:count 0
scalar MultiCell.ue11.lo[0].lo rcvdPkFromHl:sum(packetBytes) 0
scalar MultiCell.ue11.lo[0].lo passedUpPk:count 0
scalar MultiCell.ue11.lo[0].lo passedUpPk:sum(packetBytes) 0
scalar MultiCell.ue11.lo[0] packetDropInterfaceDown:count 0
scalar MultiCell.ue11.lo[0] packetDropInterfaceDown:sum(packetBytes) 0
scalar MultiCell.ue11.lo[0] packetDropNoCarrier:count 0
scalar MultiCell.ue11.lo[0] packetDropNoCarrier:sum(packetBytes) 0
scalar MultiCell.ue11.cellularNic.pdcp sentPacketToLowerLayer:count 0
scalar MultiCell.ue11.cellularNic.pdcp sentPacketToLowerLayer:sum(packetBytes) 0
scalar MultiCell.ue11.cellularNic.pdcp sentPacketToUpperLayer:count 805
scalar MultiCell.ue11.cellularNic.pdcp sentPacketToUpperLayer:sum(packetBytes) 54740
scalar MultiCell.ue11.cellularNic.pdcp receivedPacketFromLowerLayer:count 805
scalar MultiCell.ue11.cellularNic.pdcp receivedPacketFromLowerLayer:sum(packetBytes) 55545
scalar MultiCell.ue11.cellularNic.pdcp receivedPacketFromUpperLayer:count 0
scalar MultiCell.ue11.cellularNic.pdcp receivedPacketFromUpperLayer:sum(packetBytes) 0
scalar MultiCell.ue11.cellularNic.rlc.tm rlcPacketLossUl:mean -nan
scalar MultiCell.ue11.cellularNic.rlc.tm rlcPacketLossUl:sum 0
scalar MultiCell.ue11.cellularNic.rlc.tm rlcPacketLossDl:mean -nan
scalar MultiCell.ue11.cellularNic.rlc.tm rlcPacketLossDl:sum 0
scalar MultiCell.ue11.cellularNic.rlc.tm sentPacketToLowerLayer:count 0
scalar MultiCell.ue11.cellularNic.rlc.tm sentPacketToLowerLayer:sum(packetBytes) 0
scalar MultiCell.ue11.cellularNic.rlc.tm sentPacketToUpperLayer:count 0
scalar MultiCell.ue11.cellularNic.rlc.tm sentPacketToUpperLayer:sum(packetBytes) 0
scalar MultiCell.ue11.cellularNic.rlc.tm receivedPacketFromLowerLayer:count 0
scalar MultiCell.ue11.cellularNic.rlc.tm receivedPacketFromLowerLayer:sum(packetBytes) 0
scalar MultiCell.ue11.cellularNic.rlc.tm receivedPacketFromUpperLayer:count 0
scalar MultiCell.ue11.cellularNic.rlc.tm receivedPacketFromUpperLayer:sum(packetBytes) 0
scalar MultiCell.ue11.cellularNic.rlc.um rlcPacketLossTotal:mean 0
scalar MultiCell.ue11.cellularNic.rlc.um rlcCellThroughputUl:mean -nan
scalar MultiCell.ue11.cellularNic.rlc.um rlcCellThroughputDl:mean -nan
scalar MultiCell.ue11.cellularNic.rlc.um rlcPduThroughputUl:mean -nan
scalar MultiCell.ue11.cellularNic.rlc.um rlcPduThroughputDl:mean 0
scalar MultiCell.ue11.cellularNic.rlc.um rlcPduDelayUl:mean -nan
scalar MultiCell.ue11.cellularNic.rlc.um rlcPduDelayDl:mean 0.0040000000000000027
scalar MultiCell.ue11.cellularNic.rlc.um rlcThroughputUl:mean -nan
scalar MultiCell.ue11.cellularNic.rlc.um rlcThroughputDl:mean 3138.1449406383877
scalar MultiCell.ue11.cellularNic.rlc.um rlcDelayUl:mean -nan
scalar MultiCell.ue11.cellularNic.rlc.um rlcDelayDl:mean 0.0047490497541180397
scalar MultiCell.ue11.cellularNic.rlc.um rlcPduPacketLossUl:mean -nan
scalar MultiCell.ue11.cellularNic.rlc.um rlcPduPacketLossDl:mean 0
scalar MultiCell.ue11.cellularNic.rlc.um rlcPacketLossUl:mean -nan
scalar MultiCell.ue11.cellularNic.rlc.um rlcPacketLossUl:sum 0
scalar MultiCell.ue11.cellularNic.rlc.um rlcPacketLossDl:mean 0
scalar MultiCell.ue11.cellularNic.rlc.um rlcPacketLossDl:sum 0
scalar MultiCell.ue11.cellularNic.rlc.um rlcCellPacketLossUl:mean -nan
scalar MultiCell.ue11.cellularNic.rlc.um rlcCellPacketLossDl:mean -nan
scalar MultiCell.ue11.cellularNic.rlc.um sentPacketToLowerLayer:count 0
scalar MultiCell.ue11.cellularNic.rlc.um sentPacketToLowerLayer:sum(packetBytes) 0
scalar MultiCell.ue11.cellularNic.rlc.um sentPacketToUpperLayer:count 805
scalar MultiCell.ue11.cellularNic.rlc.um sentPacketToUpperLayer:sum(packetBytes) 55545
scalar MultiCell.ue11.cellularNic.rlc.um receivedPacketFromLowerLayer:count 862
scalar MultiCell.ue11.cellularNic.rlc.um receivedPacketFromLowerLayer:sum(packetBytes) 57269
scalar MultiCell.ue11.cellularNic.rlc.um receivedPacketFromUpperLayer:count 0
scalar MultiCell.ue11.cellularNic.rlc.um receivedPacketFromUpperLayer:sum(packetBytes) 0
scalar MultiCell.ue11.cellularNic.rlc.am rlcPacketLossTotal:mean -nan
scalar MultiCell.ue11.cellularNic.rlc.am rlcCellThroughputUl:mean -nan
scalar MultiCell.ue11.cellularNic.rlc.am rlcCellThroughputDl:mean -nan
scalar MultiCell.ue11.cellularNic.rlc.am rlcPduThroughputUl:mean -nan
scalar MultiCell.ue11.cellularNic.rlc.am rlcPduThroughputDl:mean -nan
scalar MultiCell.ue11.cellularNic.rlc.am rlcPduDelayUl:mean -nan
scalar MultiCell.ue11.cellularNic.rlc.am rlcPduDelayDl:mean -nan
scalar MultiCell.ue11.cellularNic.rlc.am rlcThroughputUl:mean -nan
scalar MultiCell.ue11.cellularNic.rlc.am rlcThroughputDl:mean -nan
scalar MultiCell.ue11.cellularNic.rlc.am rlcDelayUl:mean -nan
scalar MultiCell.ue11.cellularNic.rlc.am rlcDelayDl:mean -nan
scalar MultiCell.ue11.cellularNic.rlc.am rlcPduPacketLossUl:mean -nan
scalar MultiCell.ue11.cellularNic.rlc.am rlcPduPacketLossDl:mean -nan
scalar MultiCell.ue11.cellularNic.rlc.am rlcPacketLossUl:mean -nan
scalar MultiCell.ue11.cellularNic.rlc.am rlcPacketLossDl:mean -nan
scalar MultiCell.ue11.cellularNic.rlc.am rlcCellPacketLossUl:mean -nan
scalar MultiCell.ue11.cellularNic.rlc.am rlcCellPacketLossDl:mean -nan
scalar MultiCell.ue11.cellularNic.mac harqTxAttemptsUl:mean -nan
scalar MultiCell.ue11.cellularNic.mac harqTxAttemptsDl:mean 1
scalar MultiCell.ue11.cellularNic.mac harqErrorRate_4th_Ul:mean -nan
scalar MultiCell.ue11.cellularNic.mac harqErrorRate_4th_Dl:mean -nan
scalar MultiCell.ue11.cellularNic.mac harqErrorRate_3rd_Ul:mean -nan
scalar MultiCell.ue11.cellularNic.mac harqErrorRate_3rd_Dl:mean -nan
scalar MultiCell.ue11.cellularNic.mac harqErrorRate_2nd_Ul:mean -nan
scalar MultiCell.ue11.cellularNic.mac harqErrorRate_2nd_Dl:mean -nan
scalar MultiCell.ue11.cellularNic.mac harqErrorRate_1st_Ul:mean -nan
scalar MultiCell.ue11.cellularNic.mac harqErrorRate_1st_Dl:mean 0
scalar MultiCell.ue11.cellularNic.mac harqErrorRateUl:mean -nan
scalar MultiCell.ue11.cellularNic.mac harqErrorRateDl:mean 0
scalar MultiCell.ue11.cellularNic.mac macCellPacketLossUl:mean -nan
scalar MultiCell.ue11.cellularNic.mac macCellPacketLossDl:mean -nan
scalar MultiCell.ue11.cellularNic.mac macPacketLossUl:mean -nan
scalar MultiCell.ue11.cellularNic.mac macPacketLossDl:mean 0
scalar MultiCell.ue11.cellularNic.mac macThroughputUl:mean -nan
scalar MultiCell.ue11.cellularNic.mac macThroughputDl:mean 3332.4888233567849
scalar MultiCell.ue11.cellularNic.mac macDelayUl:mean -nan
scalar MultiCell.ue11.cellularNic.mac macDelayDl:mean 0.0040000000000000027
scalar MultiCell.ue11.cellularNic.mac macCellThroughputUl:mean -nan
scalar MultiCell.ue11.cellularNic.mac macCellThroughputDl:mean -nan
scalar MultiCell.ue11.cellularNic.mac sentPacketToLowerLayer:count 862
scalar MultiCell.ue11.cellularNic.mac sentPacketToLowerLayer:sum(packetBytes) 862
scalar MultiCell.ue11.cellularNic.mac sentPacketToUpperLayer:count 862
scalar MultiCell.ue11.cellularNic.mac sentPacketToUpperLayer:sum(packetBytes) 57269
scalar MultiCell.ue11.cellularNic.mac receivedPacketFromLowerLayer:count 862
scalar MultiCell.ue11.cellularNic.mac receivedPacketFromLowerLayer:sum(packetBytes) 58993
scalar MultiCell.ue11.cellularNic.mac receivedPacketFromUpperLayer:count 0
scalar MultiCell.ue11.cellularNic.mac receivedPacketFromUpperLayer:sum(packetBytes) 0
scalar MultiCell.ue11.cellularNic.mac macBufferOverFlowD2D:mean -nan
scalar MultiCell.ue11.cellularNic.mac macBufferOverFlowUl:mean -nan
scalar MultiCell.ue11.cellularNic.mac macBufferOverFlowDl:mean -nan
scalar MultiCell.ue11.cellularNic.phy distance:mean -nan
scalar MultiCell.ue11.cellularNic.phy averageCqiUl:mean -nan
scalar MultiCell.ue11.cellularNic.phy averageCqiUl:count 0
scalar MultiCell.ue11.cellularNic.phy averageCqiDl:mean 13.016241299303944
scalar MultiCell.ue11.cellularNic.phy averageCqiDl:count 862
scalar MultiCell.ue11.cellularNic.channelModel[0] measuredSinrUl:mean 21.708313492809364
scalar MultiCell.ue11.cellularNic.channelModel[0] measuredSinrDl:mean 30.375760499285054
scalar MultiCell.ue11.cellularNic.channelModel[0] rcvdSinrD2D:mean -nan
scalar MultiCell.ue11.cellularNic.channelModel[0] rcvdSinrUl:mean -nan
scalar MultiCell.ue11.cellularNic.channelModel[0] rcvdSinrDl:mean 34.392041956741643
scalar MultiCell.ue11.cellularNic packetDropInterfaceDown:count 0
scalar MultiCell.ue11.cellularNic packetDropInterfaceDown:sum(packetBytes) 0
scalar MultiCell.ue11.cellularNic packetDropNoCarrier:count 0
scalar MultiCell.ue11.cellularNic packetDropNoCarrier:sum(packetBytes) 0
scalar MultiCell.ue11.encap pauseSent:count 0
scalar MultiCell.ue11.encap pauseSent:sum 0
scalar MultiCell.ue11.encap decapPk:count 0
scalar MultiCell.ue11.encap decapPk:sum(packetBytes) 0
scalar MultiCell.ue11.encap encapPk:count 0
scalar MultiCell.ue11.encap encapPk:sum(packetBytes) 0
scalar MultiCell.ue11.ipv4.ip packetDropAddressResolutionFailed:count 0
scalar MultiCell.ue11.ipv4.ip packetDropAddressResolutionFailed:sum(packetBytes) 0
scalar MultiCell.ue11.ipv4.ip packetDropHopLimitReached:count 0
scalar MultiCell.ue11.ipv4.ip packetDropHopLimitReached:sum(packetBytes) 0
scalar MultiCell.ue11.ipv4.ip packetDropForwardingDisabled:count 0
scalar MultiCell.ue11.ipv4.ip packetDropForwardingDisabled:sum(packetBytes) 0
scalar MultiCell.ue11.ipv4.ip packetDropNoInterfaceFound:count 0
scalar MultiCell.ue11.ipv4.ip packetDropNoInterfaceFound:sum(packetBytes) 0
scalar MultiCell.ue11.ipv4.ip packetDropNoRouteFound:count 0
scalar MultiCell.ue11.ipv4.ip packetDropNoRouteFound:sum(packetBytes) 0
scalar MultiCell.ue11.ipv4.ip packetDropUndefined:count 0
scalar MultiCell.ue11.ipv4.ip packetDropUndefined:sum(packetBytes) 0
scalar MultiCell.ue11.ipv4.arp arpResolutionFailed:count 0
scalar MultiCell.ue11.ipv4.arp arpResolutionCompleted:count 0
scalar MultiCell.ue11.ipv4.arp arpResolutionInitiated:count 0
scalar MultiCell.ue11.ipv4.arp arpReplySent:count 0
scalar MultiCell.ue11.ipv4.arp arpReplySent:sum(packetBytes) 0
scalar MultiCell.ue11.ipv4.arp arpRequestSent:count 0
scalar MultiCell.ue11.ipv4.arp arpRequestSent:sum(packetBytes) 0
scalar MultiCell.ue11.udp packetReceived:count 805
scalar MultiCell.ue11.udp packetReceived:sum(packetBytes) 38640
scalar MultiCell.ue11.udp packetSent:count 0
scalar MultiCell.ue11.udp packetSent:sum(packetBytes) 0
scalar MultiCell.ue11.udp passedUpPk:count 805
scalar MultiCell.ue11.udp droppedPkWrongPort:count 0
scalar MultiCell.ue11.udp droppedPkBadChecksum:count 0
scalar MultiCell.ue11.app[0] voIPReceivedThroughput:mean 1819.2144583410961
scalar MultiCell.ue11.app[0] voIPPlayoutLoss:mean 0.040846560846560846
scalar MultiCell.ue11.app[0] voIPJitter:mean 0.001
scalar MultiCell.ue11.app[0] voIPTaildropLoss:mean 0
scalar MultiCell.ue11.app[0] voIPMos:mean 3.9833613642895238
scalar MultiCell.ue11.app[0] voIPPlayoutDelay:mean 0.00033333333333333332
scalar MultiCell.ue11.app[0] voIPFrameDelay:mean 0.0047494085541180215
scalar MultiCell.ue11.app[0] voIPFrameLoss:mean 0
scalar MultiCell.ue12.lo[0].lo rcvdPkFromHl:count 0
scalar MultiCell.ue12.lo[0].lo rcvdPkFromHl:sum(packetBytes) 0
scalar MultiCell.ue12.lo[0].lo passedUpPk:count 0
scalar MultiCell.ue12.lo[0].lo passedUpPk:sum(packetBytes) 0
scalar MultiCell.ue12.lo[0] packetDropInterfaceDown:count 0
scalar MultiCell.ue12.lo[0] packetDropInterfaceDown:sum(packetBytes) 0
scalar MultiCell.ue12.lo[0] packetDropNoCarrier:count 0
scalar MultiCell.ue12.lo[0] packetDropNoCarrier:sum(packetBytes) 0
scalar MultiCell.ue12.cellularNic.pdcp sentPacketToLowerLayer:count 0
scalar MultiCell.ue12.cellularNic.pdcp sentPacketToLowerLayer:sum(packetBytes) 0
scalar MultiCell.ue12.cellularNic.pdcp sentPacketToUpperLayer:count 714
scalar MultiCell.ue12.cellularNic.pdcp sentPacketToUpperLayer:sum(packetBytes) 48552
scalar MultiCell.ue12.cellularNic.pdcp receivedPacketFromLowerLayer:count 714
scalar MultiCell.ue12.cellularNic.pdcp receivedPacketFromLowerLayer:sum(packetBytes) 49266
scalar MultiCell.ue12.cellularNic.pdcp receivedPacketFromUpperLayer:count 0
scalar MultiCell.ue12.cellularNic.pdcp receivedPacketFromUpperLayer:sum(packetBytes) 0
scalar MultiCell.ue12.cellularNic.rlc.tm rlcPacketLossUl:mean -nan
scalar MultiCell.ue12.cellularNic.rlc.tm rlcPacketLossUl:sum 0
scalar MultiCell.ue12.cellularNic.rlc.tm rlcPacketLossDl:mean -nan
scalar MultiCell.ue12.cellularNic.rlc.tm rlcPacketLossDl:sum 0
scalar MultiCell.ue12.cellularNic.rlc.tm sentPacketToLowerLayer:count 0
scalar MultiCell.ue12.cellularNic.rlc.tm sentPacketToLowerLayer:sum(packetBytes) 0
scalar MultiCell.ue12.cellularNic.rlc.tm sentPacketToUpperLayer:count 0
scalar MultiCell.ue12.cellularNic.rlc.tm sentPacketToUpperLayer:sum(packetBytes) 0
scalar MultiCell.ue12.cellularNic.rlc.tm receivedPacketFromLowerLayer:count 0
scalar MultiCell.ue12.cellularNic.rlc.tm receivedPacketFromLowerLayer:sum(packetBytes) 0
scalar MultiCell.ue12.cellularNic.rlc.tm receivedPacketFromUpperLayer:count 0
scalar MultiCell.ue12.cellularNic.rlc.tm receivedPacketFromUpperLayer:sum(packetBytes) 0
scalar MultiCell.ue12.cellularNic.rlc.um rlcPacketLossTotal:mean 0
scalar MultiCell.ue12.cellularNic.rlc.um rlcCellThroughputUl:mean -nan
scalar MultiCell.ue12.cellularNic.rlc.um rlcCellThroughputDl:mean -nan
scalar MultiCell.ue12.cellularNic.rlc.um rlcPduThroughputUl:mean -nan
scalar MultiCell.ue12.cellularNic.rlc.um rlcPduThroughputDl:mean 0
scalar MultiCell.ue12.cellularNic.rlc.um rlcPduDelayUl:mean -nan
scalar MultiCell.ue12.cellularNic.rlc.um rlcPduDelayDl:mean 0.0040000000000000027
scalar MultiCell.ue12.cellularNic.rlc.um rlcThroughputUl:mean -nan
scalar MultiCell.ue12.cellularNic.rlc.um rlcThroughputDl:mean 2587.9923893683886
scalar MultiCell.ue12.cellularNic.rlc.um rlcDelayUl:mean -nan
scalar MultiCell.ue12.cellularNic.rlc.um rlcDelayDl:mean 0.0043702155364299536
scalar MultiCell.ue12.cellularNic.rlc.um rlcPduPacketLossUl:mean -nan
scalar MultiCell.ue12.cellularNic.rlc.um rlcPduPacketLossDl:mean 0
scalar MultiCell.ue12.cellularNic.rlc.um rlcPacketLossUl:mean -nan
scalar MultiCell.ue12.cellularNic.rlc.um rlcPacketLossUl:sum 0
scalar MultiCell.ue12.cellularNic.rlc.um rlcPacketLossDl:mean 0
scalar MultiCell.ue12.cellularNic.rlc.um rlcPacketLossDl:sum 0
scalar MultiCell.ue12.cellularNic.rlc.um rlcCellPacketLossUl:mean -nan
scalar MultiCell.ue12.cellularNic.rlc.um rlcCellPacketLossDl:mean -nan
scalar MultiCell.ue12.cellularNic.rlc.um sentPacketToLowerLayer:count 0
scalar MultiCell.ue12.cellularNic.rlc.um sentPacketToLowerLayer:sum(packetBytes) 0
scalar MultiCell.ue12.cellularNic.rlc.um sentPacketToUpperLayer:count 714
scalar MultiCell.ue12.cellularNic.rlc.um sentPacketToUpperLayer:sum(packetBytes) 49266
scalar MultiCell.ue12.cellularNic.rlc.um receivedPacketFromLowerLayer:count 714
scalar MultiCell.ue12.cellularNic.rlc.um receivedPacketFromLowerLayer:sum(packetBytes) 50694
scalar MultiCell.ue12.cellularNic.rlc.um receivedPacketFromUpperLayer:count 0
scalar MultiCell.ue12.cellularNic.rlc.um receivedPacketFromUpperLayer:sum(packetBytes) 0
scalar MultiCell.ue12.cellularNic.rlc.am rlcPacketLossTotal:mean -nan
scalar MultiCell.ue12.cellularNic.rlc.am rlcCellThroughputUl:mean -nan
scalar MultiCell.ue12.cellularNic.rlc.am rlcCellThroughputDl:mean -nan
scalar MultiCell.ue12.cellularNic.rlc.am rlcPduThroughputUl:mean -nan
scalar MultiCell.ue12.cellularNic.rlc.am rlcPduThroughputDl:mean -nan
scalar MultiCell.ue12.cellularNic.rlc.am rlcPduDelayUl:mean -nan
scalar MultiCell.ue12.cellularNic.rlc.am rlcPduDelayDl:mean -nan
scalar MultiCell.ue12.cellularNic.rlc.am rlcThroughputUl:mean -nan
scalar MultiCell.ue12.cellularNic.rlc.am rlcThroughputDl:mean -nan
scalar MultiCell.ue12.cellularNic.rlc.am rlcDelayUl:mean -nan
scalar MultiCell.ue12.cellularNic.rlc.am rlcDelayDl:mean -nan
scalar MultiCell.ue12.cellularNic.rlc.am rlcPduPacketLossUl:mean -nan
scalar MultiCell.ue12.cellularNic.rlc.am rlcPduPacketLossDl:mean -nan
scalar MultiCell.ue12.cellularNic.rlc.am rlcPacketLossUl:mean -nan
scalar MultiCell.ue12.cellularNic.rlc.am rlcPacketLossDl:mean -nan
scalar MultiCell.ue12.cellularNic.rlc.am rlcCellPacketLossUl:mean -nan
scalar MultiCell.ue12.cellularNic.rlc.am rlcCellPacketLossDl:mean -nan
scalar MultiCell.ue12.cellularNic.mac harqTxAttemptsUl:mean -nan
scalar MultiCell.ue12.cellularNic.mac harqTxAttemptsDl:mean 1
scalar MultiCell.ue12.cellularNic.mac harqErrorRate_4th_Ul:mean -nan
scalar MultiCell.ue12.cellularNic.mac harqErrorRate_4th_Dl:mean -nan
scalar MultiCell.ue12.cellularNic.mac harqErrorRate_3rd_Ul:mean -nan
scalar MultiCell.ue12.cellularNic.mac harqErrorRate_3rd_Dl:mean -nan
scalar MultiCell.ue12.cellularNic.mac harqErrorRate_2nd_Ul:mean -nan
scalar MultiCell.ue12.cellularNic.mac harqErrorRate_2nd_Dl:mean -nan
scalar MultiCell.ue12.cellularNic.mac harqErrorRate_1st_Ul:mean -nan
scalar MultiCell.ue12.cellularNic.mac harqErrorRate_1st_Dl:mean 0
scalar MultiCell.ue12.cellularNic.mac harqErrorRateUl:mean -nan
scalar MultiCell.ue12.cellularNic.mac harqErrorRateDl:mean 0
scalar MultiCell.ue12.cellularNic.mac macCellPacketLossUl:mean -nan
scalar MultiCell.ue12.cellularNic.mac macCellPacketLossDl:mean -nan
scalar MultiCell.ue12.cellularNic.mac macPacketLossUl:mean -nan
scalar MultiCell.ue12.cellularNic.mac macPacketLossDl:mean 0
scalar MultiCell.ue12.cellularNic.mac macThroughputUl:mean -nan
scalar MultiCell.ue12.cellularNic.mac macThroughputDl:mean 2738.0209336796006
scalar MultiCell.ue12.cellularNic.mac macDelayUl:mean -nan
scalar MultiCell.ue12.cellularNic.mac macDelayDl:mean 0.0040000000000000027
scalar MultiCell.ue12.cellularNic.mac macCellThroughputUl:mean -nan
scalar MultiCell.ue12.cellularNic.mac macCellThroughputDl:mean -nan
scalar MultiCell.ue12.cellularNic.mac sentPacketToLowerLayer:count 714
scalar MultiCell.ue12.cellularNic.mac sentPacketToLowerLayer:sum(packetBytes) 714
scalar MultiCell.ue12.cellularNic.mac sentPacketToUpperLayer:count 714
scalar MultiCell.ue12.cellularNic.mac sentPacketToUpperLayer:sum(packetBytes) 50694
scalar MultiCell.ue12.cellularNic.mac receivedPacketFromLowerLayer:count 714
scalar MultiCell.ue12.cellularNic.mac receivedPacketFromLowerLayer:sum(packetBytes) 52122
scalar MultiCell.ue12.cellularNic.mac receivedPacketFromUpperLayer:count 0
scalar MultiCell.ue12.cellularNic.mac receivedPacketFromUpperLayer:sum(packetBytes) 0
scalar MultiCell.ue12.cellularNic.mac macBufferOverFlowD2D:mean -nan
scalar MultiCell.ue12.cellularNic.mac macBufferOverFlowUl:mean -nan
scalar MultiCell.ue12.cellularNic.mac macBufferOverFlowDl:mean -nan
scalar MultiCell.ue12.cellularNic.phy distance:mean -nan
scalar MultiCell.ue12.cellularNic.phy averageCqiUl:mean -nan
scalar MultiCell.ue12.cellularNic.phy averageCqiUl:count 0
scalar MultiCell.ue12.cellularNic.phy averageCqiDl:mean 13.288515406162466
scalar MultiCell.ue12.cellularNic.phy averageCqiDl:count 714
scalar MultiCell.ue12.cellularNic.channelModel[0] measuredSinrUl:mean 27.073580411461567
scalar MultiCell.ue12.cellularNic.channelModel[0] measuredSinrDl:mean 33.823774364538799
scalar MultiCell.ue12.cellularNic.channelModel[0] rcvdSinrD2D:mean -nan
scalar MultiCell.ue12.cellularNic.channelModel[0] rcvdSinrUl:mean -nan
scalar MultiCell.ue12.cellularNic.channelModel[0] rcvdSinrDl:mean 34.742198011201779
scalar MultiCell.ue12.cellularNic packetDropInterfaceDown:count 0
scalar MultiCell.ue12.cellularNic packetDropInterfaceDown:sum(packetBytes) 0
scalar MultiCell.ue12.cellularNic packetDropNoCarrier:count 0
scalar MultiCell.ue12.cellularNic packetDropNoCarrier:sum(packetBytes) 0
scalar MultiCell.ue12.encap pauseSent:count 0
scalar MultiCell.ue12.encap pauseSent:sum 0
scalar MultiCell.ue12.encap decapPk:count 0
scalar MultiCell.ue12.encap decapPk:sum(packetBytes) 0
scalar MultiCell.ue12.encap encapPk:count 0
scalar MultiCell.ue12.encap encapPk:sum(packetBytes) 0
scalar MultiCell.ue12.ipv4.ip packetDropAddressResolutionFailed:count 0
scalar MultiCell.ue12.ipv4.ip packetDropAddressResolutionFailed:sum(packetBytes) 0
scalar MultiCell.ue12.ipv4.ip packetDropHopLimitReached:count 0
scalar MultiCell.ue12.ipv4.ip packetDropHopLimitReached:sum(packetBytes) 0
scalar MultiCell.ue12.ipv4.ip packetDropForwardingDisabled:count 0
scalar MultiCell.ue12.ipv4.ip packetDropForwardingDisabled:sum(packetBytes) 0
scalar MultiCell.ue12.ipv4.ip packetDropNoInterfaceFound:count 0
scalar MultiCell.ue12.ipv4.ip packetDropNoInterfaceFound:sum(packetBytes) 0
scalar MultiCell.ue12.ipv4.ip packetDropNoRouteFound:count 0
scalar MultiCell.ue12.ipv4.ip packetDropNoRouteFound:sum(packetBytes) 0
scalar MultiCell.ue12.ipv4.ip packetDropUndefined:count 0
scalar MultiCell.ue12.ipv4.ip packetDropUndefined:sum(packetBytes) 0
scalar MultiCell.ue12.ipv4.arp arpResolutionFailed:count 0
scalar MultiCell.ue12.ipv4.arp arpResolutionCompleted:count 0
scalar MultiCell.ue12.ipv4.arp arpResolutionInitiated:count 0
scalar MultiCell.ue12.ipv4.arp arpReplySent:count 0
scalar MultiCell.ue12.ipv4.arp arpReplySent:sum(packetBytes) 0
scalar MultiCell.ue12.ipv4.arp arpRequestSent:count 0
scalar MultiCell.ue12.ipv4.arp arpRequestSent:sum(packetBytes) 0
scalar MultiCell.ue12.udp packetReceived:count 714
scalar MultiCell.ue12.udp packetReceived:sum(packetBytes) 34272
scalar MultiCell.ue12.udp packetSent:count 0
scalar MultiCell.ue12.udp packetSent:sum(packetBytes) 0
scalar MultiCell.ue12.udp passedUpPk:count 714
scalar MultiCell.ue12.udp droppedPkWrongPort:count 0
scalar MultiCell.ue12.udp droppedPkBadChecksum:count 0
scalar MultiCell.ue12.app[0] voIPReceivedThroughput:mean 1500.2854431121084
scalar MultiCell.ue12.app[0] voIPPlayoutLoss:mean 0
scalar MultiCell.ue12.app[0] voIPJitter:mean -nan
scalar MultiCell.ue12.app[0] voIPTaildropLoss:mean 0
scalar MultiCell.ue12.app[0] voIPMos:mean 4.4092858240000004
scalar MultiCell.ue12.app[0] voIPPlayoutDelay:mean 0
scalar MultiCell.ue12.app[0] voIPFrameDelay:mean 0.0043705743364300205
scalar MultiCell.ue12.app[0] voIPFrameLoss:mean 0
scalar MultiCell.ue21.lo[0].lo rcvdPkFromHl:count 0
scalar MultiCell.ue21.lo[0].lo rcvdPkFromHl:sum(packetBytes) 0
scalar MultiCell.ue21.lo[0].lo passedUpPk:count 0
scalar MultiCell.ue21.lo[0].lo passedUpPk:sum(packetBytes) 0
scalar MultiCell.ue21.lo[0] packetDropInterfaceDown:count 0
scalar MultiCell.ue21.lo[0] packetDropInterfaceDown:sum(packetBytes) 0
scalar MultiCell.ue21.lo[0] packetDropNoCarrier:count 0
scalar MultiCell.ue21.lo[0] packetDropNoCarrier:sum(packetBytes) 0
scalar MultiCell.ue21.cellularNic.pdcp sentPacketToLowerLayer:count 0
scalar MultiCell.ue21.cellularNic.pdcp sentPacketToLowerLayer:sum(packetBytes) 0
scalar MultiCell.ue21.cellularNic.pdcp sentPacketToUpperLayer:count 742
scalar MultiCell.ue21.cellularNic.pdcp sentPacketToUpperLayer:sum(packetBytes) 50456
scalar MultiCell.ue21.cellularNic.pdcp receivedPacketFromLowerLayer:count 742
scalar MultiCell.ue21.cellularNic.pdcp receivedPacketFromLowerLayer:sum(packetBytes) 51198
scalar MultiCell.ue21.cellularNic.pdcp receivedPacketFromUpperLayer:count 0
scalar MultiCell.ue21.cellularNic.pdcp receivedPacketFromUpperLayer:sum(packetBytes) 0
scalar MultiCell.ue21.cellularNic.rlc.tm rlcPacketLossUl:mean -nan
scalar MultiCell.ue21.cellularNic.rlc.tm rlcPacketLossUl:sum 0
scalar MultiCell.ue21.cellularNic.rlc.tm rlcPacketLossDl:mean -nan
scalar MultiCell.ue21.cellularNic.rlc.tm rlcPacketLossDl:sum 0
scalar MultiCell.ue21.cellularNic.rlc.tm sentPacketToLowerLayer:count 0
scalar MultiCell.ue21.cellularNic.rlc.tm sentPacketToLowerLayer:sum(packetBytes) 0
scalar MultiCell.ue21.cellularNic.rlc.tm sentPacketToUpperLayer:count 0
scalar MultiCell.ue21.cellularNic.rlc.tm sentPacketToUpperLayer:sum(packetBytes) 0
scalar MultiCell.ue21.cellularNic.rlc.tm receivedPacketFromLowerLayer:count 0
scalar MultiCell.ue21.cellularNic.rlc.tm receivedPacketFromLowerLayer:sum(packetBytes) 0
scalar MultiCell.ue21.cellularNic.rlc.tm receivedPacketFromUpperLayer:count 0
scalar MultiCell.ue21.cellularNic.rlc.tm receivedPacketFromUpperLayer:sum(packetBytes) 0
scalar MultiCell.ue21.cellularNic.rlc.um rlcPacketLossTotal:mean 0
scalar MultiCell.ue21.cellularNic.rlc.um rlcCellThroughputUl:mean -nan
scalar MultiCell.ue21.cellularNic.rlc.um rlcCellThroughputDl:mean -nan
scalar MultiCell.ue21.cellularNic.rlc.um rlcPduThroughputUl:mean -nan
scalar MultiCell.ue21.cellularNic.rlc.um rlcPduThroughputDl:mean 0
scalar MultiCell.ue21.cellularNic.rlc.um rlcPduDelayUl:mean -nan
scalar MultiCell.ue21.cellularNic.rlc.um rlcPduDelayDl:mean 0.0040000000000000027
scalar MultiCell.ue21.cellularNic.rlc.um rlcThroughputUl:mean -nan
scalar MultiCell.ue21.cellularNic.rlc.um rlcThroughputDl:mean 2184.3839532246006
scalar MultiCell.ue21.cellularNic.rlc.um rlcDelayUl:mean -nan
scalar MultiCell.ue21.cellularNic.rlc.um rlcDelayDl:mean 0.0045846534880229373
scalar MultiCell.ue21.cellularNic.rlc.um rlcPduPacketLossUl:mean -nan
scalar MultiCell.ue21.cellularNic.rlc.um rlcPduPacketLossDl:mean 0
scalar MultiCell.ue21.cellularNic.rlc.um rlcPacketLossUl:mean -nan
scalar MultiCell.ue21.cellularNic.rlc.um rlcPacketLossUl:sum 0
scalar MultiCell.ue21.cellularNic.rlc.um rlcPacketLossDl:mean 0
scalar MultiCell.ue21.cellularNic.rlc.um rlcPacketLossDl:sum 0
scalar MultiCell.ue21.cellularNic.rlc.um rlcCellPacketLossUl:mean -nan
scalar MultiCell.ue21.cellularNic.rlc.um rlcCellPacketLossDl:mean -nan
scalar MultiCell.ue21.cellularNic.rlc.um sentPacketToLowerLayer:count 0
scalar MultiCell.ue21.cellularNic.rlc.um sentPacketToLowerLayer:sum(packetBytes) 0
scalar MultiCell.ue21.cellularNic.rlc.um sentPacketToUpperLayer:count 742
scalar MultiCell.ue21.cellularNic.rlc.um sentPacketToUpperLayer:sum(packetBytes) 51198
scalar MultiCell.ue21.cellularNic.rlc.um receivedPacketFromLowerLayer:count 800
scalar MultiCell.ue21.cellularNic.rlc.um receivedPacketFromLowerLayer:sum(packetBytes) 52798
scalar MultiCell.ue21.cellularNic.rlc.um receivedPacketFromUpperLayer:count 0
scalar MultiCell.ue21.cellularNic.rlc.um receivedPacketFromUpperLayer:sum(packetBytes) 0
scalar MultiCell.ue21.cellularNic.rlc.am rlcPacketLossTotal:mean -nan
scalar MultiCell.ue21.cellularNic.rlc.am rlcCellThroughputUl:mean -nan
scalar MultiCell.ue21.cellularNic.rlc.am rlcCellThroughputDl:mean -nan
scalar MultiCell.ue21.cellularNic.rlc.am rlcPduThroughputUl:mean -nan
scalar MultiCell.ue21.cellularNic.rlc.am rlcPduThroughputDl:mean -nan
scalar MultiCell.ue21.cellularNic.rlc.am rlcPduDelayUl:mean -nan
scalar MultiCell.ue21.cellularNic.rlc.am rlcPduDelayDl:mean -nan
scalar MultiCell.ue21.cellularNic.rlc.am rlcThroughputUl:mean -nan
scalar MultiCell.ue21.cellularNic.rlc.am rlcThroughputDl:mean -nan
scalar MultiCell.ue21.cellularNic.rlc.am rlcDelayUl:mean -nan
scalar MultiCell.ue21.cellularNic.rlc.am rlcDelayDl:mean -nan
scalar MultiCell.ue21.cellularNic.rlc.am rlcPduPacketLossUl:mean -nan
scalar MultiCell.ue21.cellularNic.rlc.am rlcPduPacketLossDl:mean -nan
scalar MultiCell.ue21.cellularNic.rlc.am rlcPacketLossUl:mean -nan
scalar MultiCell.ue21.cellularNic.rlc.am rlcPacketLossDl:mean -nan
scalar MultiCell.ue21.cellularNic.rlc.am rlcCellPacketLossUl:mean -nan
scalar MultiCell.ue21.cellularNic.rlc.am rlcCellPacketLossDl:mean -nan
scalar MultiCell.ue21.cellularNic.mac harqTxAttemptsUl:mean -nan
scalar MultiCell.ue21.cellularNic.mac harqTxAttemptsDl:mean 1
scalar MultiCell.ue21.cellularNic.mac harqErrorRate_4th_Ul:mean -nan
scalar MultiCell.ue21.cellularNic.mac harqErrorRate_4th_Dl:mean -nan
scalar MultiCell.ue21.cellularNic.mac harqErrorRate_3rd_Ul:mean -nan
scalar MultiCell.ue21.cellularNic.mac harqErrorRate_3rd_Dl:mean -nan
scalar MultiCell.ue21.cellularNic.mac harqErrorRate_2nd_Ul:mean -nan
scalar MultiCell.ue21.cellularNic.mac harqErrorRate_2nd_Dl:mean -nan
scalar MultiCell.ue21.cellularNic.mac harqErrorRate_1st_Ul:mean -nan
scalar MultiCell.ue21.cellularNic.mac harqErrorRate_1st_Dl:mean 0
scalar MultiCell.ue21.cellularNic.mac harqErrorRateUl:mean -nan
scalar MultiCell.ue21.cellularNic.mac harqErrorRateDl:mean 0
scalar MultiCell.ue21.cellularNic.mac macCellPacketLossUl:mean -nan
scalar MultiCell.ue21.cellularNic.mac macCellPacketLossDl:mean -nan
scalar MultiCell.ue21.cellularNic.mac macPacketLossUl:mean -nan
scalar MultiCell.ue21.cellularNic.mac macPacketLossDl:mean 0
scalar MultiCell.ue21.cellularNic.mac macThroughputUl:mean -nan
scalar MultiCell.ue21.cellularNic.mac macThroughputDl:mean 2326.2143495169394
scalar MultiCell.ue21.cellularNic.mac macDelayUl:mean -nan
scalar MultiCell.ue21.cellularNic.mac macDelayDl:mean 0.0040000000000000027
scalar MultiCell.ue21.cellularNic.mac macCellThroughputUl:mean -nan
scalar MultiCell.ue21.cellularNic.mac macCellThroughputDl:mean -nan
scalar MultiCell.ue21.cellularNic.mac sentPacketToLowerLayer:count 800
scalar MultiCell.ue21.cellularNic.mac sentPacketToLowerLayer:sum(packetBytes) 800
scalar MultiCell.ue21.cellularNic.mac sentPacketToUpperLayer:count 800
scalar MultiCell.ue21.cellularNic.mac sentPacketToUpperLayer:sum(packetBytes) 52798
scalar MultiCell.ue21.cellularNic.mac receivedPacketFromLowerLayer:count 800
scalar MultiCell.ue21.cellularNic.mac receivedPacketFromLowerLayer:sum(packetBytes) 54398
scalar MultiCell.ue21.cellularNic.mac receivedPacketFromUpperLayer:count 0
[...]
scalar MultiCell.ue22.cellularNic.mac sentPacketToLowerLayer:vector(packetBytes):stddev nan
scalar MultiCell.ue22.cellularNic.mac sentPacketToLowerLayer:vector(packetBytes):min inf
scalar MultiCell.ue22.cellularNic.mac sentPacketToLowerLayer:vector(packetBytes):max -inf
scalar MultiCell.ue22.cellularNic.mac sentPacketToLowerLayer:vector(packetBytes):starttime nan
scalar MultiCell.ue22.cellularNic.mac sentPacketToLowerLayer:vector(packetBytes):endtime nan
scalar MultiCell.ue22.cellularNic.phy distance:vector:count 0
scalar MultiCell.ue22.cellularNic.phy distance:vector:sum 0
scalar MultiCell.ue22.cellularNic.phy distance:vector:sumweights 0
scalar MultiCell.ue22.cellularNic.phy distance:vector:mean -nan
scalar MultiCell.ue22.cellularNic.phy distance:vector:stddev nan
scalar MultiCell.ue22.cellularNic.phy distance:vector:min inf
scalar MultiCell.ue22.cellularNic.phy distance:vector:max -inf
scalar MultiCell.ue22.cellularNic.phy distance:vector:starttime nan
scalar MultiCell.ue22.cellularNic.phy distance:vector:endtime nan
scalar MultiCell.ue22.cellularNic.phy servingCell:vector:count 0
scalar MultiCell.ue22.cellularNic.phy servingCell:vector:sum 0
scalar MultiCell.ue22.cellularNic.phy servingCell:vector:sumweights 0
scalar MultiCell.ue22.cellularNic.phy servingCell:vector:mean -nan
scalar MultiCell.ue22.cellularNic.phy servingCell:vector:stddev nan
scalar MultiCell.ue22.cellularNic.phy servingCell:vector:min inf
scalar MultiCell.ue22.cellularNic.phy servingCell:vector:max -inf
scalar MultiCell.ue22.cellularNic.phy servingCell:vector:starttime nan
scalar MultiCell.ue22.cellularNic.phy servingCell:vector:endtime nan
scalar MultiCell.ue22.cellularNic.phy averageCqiDl:vector:count 0
scalar MultiCell.ue22.cellularNic.phy averageCqiDl:vector:sum 0
scalar MultiCell.ue22.cellularNic.phy averageCqiDl:vector:sumweights 0
scalar MultiCell.ue22.cellularNic.phy averageCqiDl:vector:mean -nan
scalar MultiCell.ue22.cellularNic.phy averageCqiDl:vector:stddev nan
scalar MultiCell.ue22.cellularNic.phy averageCqiDl:vector:min inf
scalar MultiCell.ue22.cellularNic.phy averageCqiDl:vector:max -inf
scalar MultiCell.ue22.cellularNic.phy averageCqiDl:vector:starttime nan
scalar MultiCell.ue22.cellularNic.phy averageCqiDl:vector:endtime nan
scalar MultiCell.ue22.cellularNic.phy averageCqiUl:vector:count 0
scalar MultiCell.ue22.cellularNic.phy averageCqiUl:vector:sum 0
scalar MultiCell.ue22.cellularNic.phy averageCqiUl:vector:sumweights 0
scalar MultiCell.ue22.cellularNic.phy averageCqiUl:vector:mean -nan
scalar MultiCell.ue22.cellularNic.phy averageCqiUl:vector:stddev nan
scalar MultiCell.ue22.cellularNic.phy averageCqiUl:vector:min inf
scalar MultiCell.ue22.cellularNic.phy averageCqiUl:vector:max -inf
scalar MultiCell.ue22.cellularNic.phy averageCqiUl:vector:starttime nan
scalar MultiCell.ue22.cellularNic.phy averageCqiUl:vector:endtime nan
scalar MultiCell.ue22.cellularNic.channelModel[0] rcvdSinrDl:vector:count 0
scalar MultiCell.ue22.cellularNic.channelModel[0] rcvdSinrDl:vector:sum 0
scalar MultiCell.ue22.cellularNic.channelModel[0] rcvdSinrDl:vector:sumweights 0
scalar MultiCell.ue22.cellularNic.channelModel[0] rcvdSinrDl:vector:mean -nan
scalar MultiCell.ue22.cellularNic.channelModel[0] rcvdSinrDl:vector:stddev nan
scalar MultiCell.ue22.cellularNic.channelModel[0] rcvdSinrDl:vector:min inf
scalar MultiCell.ue22.cellularNic.channelModel[0] rcvdSinrDl:vector:max -inf
scalar MultiCell.ue22.cellularNic.channelModel[0] rcvdSinrDl:vector:starttime nan
scalar MultiCell.ue22.cellularNic.channelModel[0] rcvdSinrDl:vector:endtime nan
scalar MultiCell.ue22.cellularNic.channelModel[0] rcvdSinrUl:vector:count 0
scalar MultiCell.ue22.cellularNic.channelModel[0] rcvdSinrUl:vector:sum 0
scalar MultiCell.ue22.cellularNic.channelModel[0] rcvdSinrUl:vector:sumweights 0
scalar MultiCell.ue22.cellularNic.channelModel[0] rcvdSinrUl:vector:mean -nan
scalar MultiCell.ue22.cellularNic.channelModel[0] rcvdSinrUl:vector:stddev nan
scalar MultiCell.ue22.cellularNic.channelModel[0] rcvdSinrUl:vector:min inf
scalar MultiCell.ue22.cellularNic.channelModel[0] rcvdSinrUl:vector:max -inf
scalar MultiCell.ue22.cellularNic.channelModel[0] rcvdSinrUl:vector:starttime nan
scalar MultiCell.ue22.cellularNic.channelModel[0] rcvdSinrUl:vector:endtime nan
scalar MultiCell.ue22.cellularNic.channelModel[0] rcvdSinrD2D:vector:count 0
scalar MultiCell.ue22.cellularNic.channelModel[0] rcvdSinrD2D:vector:sum 0
scalar MultiCell.ue22.cellularNic.channelModel[0] rcvdSinrD2D:vector:sumweights 0
scalar MultiCell.ue22.cellularNic.channelModel[0] rcvdSinrD2D:vector:mean -nan
scalar MultiCell.ue22.cellularNic.channelModel[0] rcvdSinrD2D:vector:stddev nan
scalar MultiCell.ue22.cellularNic.channelModel[0] rcvdSinrD2D:vector:min inf
scalar MultiCell.ue22.cellularNic.channelModel[0] rcvdSinrD2D:vector:max -inf
scalar MultiCell.ue22.cellularNic.channelModel[0] rcvdSinrD2D:vector:starttime nan
scalar MultiCell.ue22.cellularNic.channelModel[0] rcvdSinrD2D:vector:endtime nan
scalar MultiCell.ue22.cellularNic.channelModel[0] measuredSinrDl:vector:count 0
scalar MultiCell.ue22.cellularNic.channelModel[0] measuredSinrDl:vector:sum 0
scalar MultiCell.ue22.cellularNic.channelModel[0] measuredSinrDl:vector:sumweights 0
scalar MultiCell.ue22.cellularNic.channelModel[0] measuredSinrDl:vector:mean -nan
scalar MultiCell.ue22.cellularNic.channelModel[0] measuredSinrDl:vector:stddev nan
scalar MultiCell.ue22.cellularNic.channelModel[0] measuredSinrDl:vector:min inf
scalar MultiCell.ue22.cellularNic.channelModel[0] measuredSinrDl:vector:max -inf
scalar MultiCell.ue22.cellularNic.channelModel[0] measuredSinrDl:vector:starttime nan
scalar MultiCell.ue22.cellularNic.channelModel[0] measuredSinrDl:vector:endtime nan
scalar MultiCell.ue22.cellularNic.channelModel[0] measuredSinrUl:vector:count 0
scalar MultiCell.ue22.cellularNic.channelModel[0] measuredSinrUl:vector:sum 0
scalar MultiCell.ue22.cellularNic.channelModel[0] measuredSinrUl:vector:sumweights 0
scalar MultiCell.ue22.cellularNic.channelModel[0] measuredSinrUl:vector:mean -nan
scalar MultiCell.ue22.cellularNic.channelModel[0] measuredSinrUl:vector:stddev nan
scalar MultiCell.ue22.cellularNic.channelModel[0] measuredSinrUl:vector:min inf
scalar MultiCell.ue22.cellularNic.channelModel[0] measuredSinrUl:vector:max -inf
scalar MultiCell.ue22.cellularNic.channelModel[0] measuredSinrUl:vector:starttime nan
scalar MultiCell.ue22.cellularNic.channelModel[0] measuredSinrUl:vector:endtime nan
scalar MultiCell.ue22.cellularNic packetDropInterfaceDown:vector(packetBytes):count 0
scalar MultiCell.ue22.cellularNic packetDropInterfaceDown:vector(packetBytes):sum 0
scalar MultiCell.ue22.cellularNic packetDropInterfaceDown:vector(packetBytes):sumweights 0
scalar MultiCell.ue22.cellularNic packetDropInterfaceDown:vector(packetBytes):mean -nan
scalar MultiCell.ue22.cellularNic packetDropInterfaceDown:vector(packetBytes):stddev nan
scalar MultiCell.ue22.cellularNic packetDropInterfaceDown:vector(packetBytes):min inf
scalar MultiCell.ue22.cellularNic packetDropInterfaceDown:vector(packetBytes):max -inf
scalar MultiCell.ue22.cellularNic packetDropInterfaceDown:vector(packetBytes):starttime nan
scalar MultiCell.ue22.cellularNic packetDropInterfaceDown:vector(packetBytes):endtime nan
scalar MultiCell.ue22.cellularNic packetDropNoCarrier:vector(packetBytes):count 0
scalar MultiCell.ue22.cellularNic packetDropNoCarrier:vector(packetBytes):sum 0
scalar MultiCell.ue22.cellularNic packetDropNoCarrier:vector(packetBytes):sumweights 0
scalar MultiCell.ue22.cellularNic packetDropNoCarrier:vector(packetBytes):mean -nan
scalar MultiCell.ue22.cellularNic packetDropNoCarrier:vector(packetBytes):stddev nan
scalar MultiCell.ue22.cellularNic packetDropNoCarrier:vector(packetBytes):min inf
scalar MultiCell.ue22.cellularNic packetDropNoCarrier:vector(packetBytes):max -inf
scalar MultiCell.ue22.cellularNic packetDropNoCarrier:vector(packetBytes):starttime nan
scalar MultiCell.ue22.cellularNic packetDropNoCarrier:vector(packetBytes):endtime nan
scalar MultiCell.ue22.encap encapPk:vector(packetBytes):count 0
scalar MultiCell.ue22.encap encapPk:vector(packetBytes):sum 0
scalar MultiCell.ue22.encap encapPk:vector(packetBytes):sumweights 0
scalar MultiCell.ue22.encap encapPk:vector(packetBytes):mean -nan
scalar MultiCell.ue22.encap encapPk:vector(packetBytes):stddev nan
scalar MultiCell.ue22.encap encapPk:vector(packetBytes):min inf
scalar MultiCell.ue22.encap encapPk:vector(packetBytes):max -inf
scalar MultiCell.ue22.encap encapPk:vector(packetBytes):starttime nan
scalar MultiCell.ue22.encap encapPk:vector(packetBytes):endtime nan
scalar MultiCell.ue22.encap decapPk:vector(packetBytes):count 0
scalar MultiCell.ue22.encap decapPk:vector(packetBytes):sum 0
scalar MultiCell.ue22.encap decapPk:vector(packetBytes):sumweights 0
scalar MultiCell.ue22.encap decapPk:vector(packetBytes):mean -nan
scalar MultiCell.ue22.encap decapPk:vector(packetBytes):stddev nan
scalar MultiCell.ue22.encap decapPk:vector(packetBytes):min inf
scalar MultiCell.ue22.encap decapPk:vector(packetBytes):max -inf
scalar MultiCell.ue22.encap decapPk:vector(packetBytes):starttime nan
scalar MultiCell.ue22.encap decapPk:vector(packetBytes):endtime nan
scalar MultiCell.ue22.encap pauseSent:vector:count 0
scalar MultiCell.ue22.encap pauseSent:vector:sum 0
scalar MultiCell.ue22.encap pauseSent:vector:sumweights 0
scalar MultiCell.ue22.encap pauseSent:vector:mean -nan
scalar MultiCell.ue22.encap pauseSent:vector:stddev nan
scalar MultiCell.ue22.encap pauseSent:vector:min inf
scalar MultiCell.ue22.encap pauseSent:vector:max -inf
scalar MultiCell.ue22.encap pauseSent:vector:starttime nan
scalar MultiCell.ue22.encap pauseSent:vector:endtime nan
scalar MultiCell.ue22.ipv4.ip packetDropAddressResolutionFailed:vector(packetBytes):count 0
scalar MultiCell.ue22.ipv4.ip packetDropAddressResolutionFailed:vector(packetBytes):sum 0
scalar MultiCell.ue22.ipv4.ip packetDropAddressResolutionFailed:vector(packetBytes):sumweights 0
scalar MultiCell.ue22.ipv4.ip packetDropAddressResolutionFailed:vector(packetBytes):mean -nan
scalar MultiCell.ue22.ipv4.ip packetDropAddressResolutionFailed:vector(packetBytes):stddev nan
scalar MultiCell.ue22.ipv4.ip packetDropAddressResolutionFailed:vector(packetBytes):min inf
scalar MultiCell.ue22.ipv4.ip packetDropAddressResolutionFailed:vector(packetBytes):max -inf
scalar MultiCell.ue22.ipv4.ip packetDropAddressResolutionFailed:vector(packetBytes):starttime nan
scalar MultiCell.ue22.ipv4.ip packetDropAddressResolutionFailed:vector(packetBytes):endtime nan
scalar MultiCell.ue22.ipv4.ip packetDropHopLimitReached:vector(packetBytes):count 0
scalar MultiCell.ue22.ipv4.ip packetDropHopLimitReached:vector(packetBytes):sum 0
scalar MultiCell.ue22.ipv4.ip packetDropHopLimitReached:vector(packetBytes):sumweights 0
scalar MultiCell.ue22.ipv4.ip packetDropHopLimitReached:vector(packetBytes):mean -nan
scalar MultiCell.ue22.ipv4.ip packetDropHopLimitReached:vector(packetBytes):stddev nan
scalar MultiCell.ue22.ipv4.ip packetDropHopLimitReached:vector(packetBytes):min inf
scalar MultiCell.ue22.ipv4.ip packetDropHopLimitReached:vector(packetBytes):max -inf
scalar MultiCell.ue22.ipv4.ip packetDropHopLimitReached:vector(packetBytes):starttime nan
scalar MultiCell.ue22.ipv4.ip packetDropHopLimitReached:vector(packetBytes):endtime nan
scalar MultiCell.ue22.ipv4.ip packetDropForwardingDisabled:vector(packetBytes):count 0
scalar MultiCell.ue22.ipv4.ip packetDropForwardingDisabled:vector(packetBytes):sum 0
scalar MultiCell.ue22.ipv4.ip packetDropForwardingDisabled:vector(packetBytes):sumweights 0
scalar MultiCell.ue22.ipv4.ip packetDropForwardingDisabled:vector(packetBytes):mean -nan
scalar MultiCell.ue22.ipv4.ip packetDropForwardingDisabled:vector(packetBytes):stddev nan
scalar MultiCell.ue22.ipv4.ip packetDropForwardingDisabled:vector(packetBytes):min inf
scalar MultiCell.ue22.ipv4.ip packetDropForwardingDisabled:vector(packetBytes):max -inf
scalar MultiCell.ue22.ipv4.ip packetDropForwardingDisabled:vector(packetBytes):starttime nan
scalar MultiCell.ue22.ipv4.ip packetDropForwardingDisabled:vector(packetBytes):endtime nan
scalar MultiCell.ue22.ipv4.ip packetDropNoInterfaceFound:vector(packetBytes):count 0
scalar MultiCell.ue22.ipv4.ip packetDropNoInterfaceFound:vector(packetBytes):sum 0
scalar MultiCell.ue22.ipv4.ip packetDropNoInterfaceFound:vector(packetBytes):sumweights 0
scalar MultiCell.ue22.ipv4.ip packetDropNoInterfaceFound:vector(packetBytes):mean -nan
scalar MultiCell.ue22.ipv4.ip packetDropNoInterfaceFound:vector(packetBytes):stddev nan
scalar MultiCell.ue22.ipv4.ip packetDropNoInterfaceFound:vector(packetBytes):min inf
scalar MultiCell.ue22.ipv4.ip packetDropNoInterfaceFound:vector(packetBytes):max -inf
scalar MultiCell.ue22.ipv4.ip packetDropNoInterfaceFound:vector(packetBytes):starttime nan
scalar MultiCell.ue22.ipv4.ip packetDropNoInterfaceFound:vector(packetBytes):endtime nan
scalar MultiCell.ue22.ipv4.ip packetDropNoRouteFound:vector(packetBytes):count 0
scalar MultiCell.ue22.ipv4.ip packetDropNoRouteFound:vector(packetBytes):sum 0
scalar MultiCell.ue22.ipv4.ip packetDropNoRouteFound:vector(packetBytes):sumweights 0
scalar MultiCell.ue22.ipv4.ip packetDropNoRouteFound:vector(packetBytes):mean -nan
scalar MultiCell.ue22.ipv4.ip packetDropNoRouteFound:vector(packetBytes):stddev nan
scalar MultiCell.ue22.ipv4.ip packetDropNoRouteFound:vector(packetBytes):min inf
scalar MultiCell.ue22.ipv4.ip packetDropNoRouteFound:vector(packetBytes):max -inf
scalar MultiCell.ue22.ipv4.ip packetDropNoRouteFound:vector(packetBytes):starttime nan
scalar MultiCell.ue22.ipv4.ip packetDropNoRouteFound:vector(packetBytes):endtime nan
scalar MultiCell.ue22.ipv4.ip packetDropUndefined:vector(packetBytes):count 0
scalar MultiCell.ue22.ipv4.ip packetDropUndefined:vector(packetBytes):sum 0
scalar MultiCell.ue22.ipv4.ip packetDropUndefined:vector(packetBytes):sumweights 0
scalar MultiCell.ue22.ipv4.ip packetDropUndefined:vector(packetBytes):mean -nan
scalar MultiCell.ue22.ipv4.ip packetDropUndefined:vector(packetBytes):stddev nan
scalar MultiCell.ue22.ipv4.ip packetDropUndefined:vector(packetBytes):min inf
scalar MultiCell.ue22.ipv4.ip packetDropUndefined:vector(packetBytes):max -inf
scalar MultiCell.ue22.ipv4.ip packetDropUndefined:vector(packetBytes):starttime nan
scalar MultiCell.ue22.ipv4.ip packetDropUndefined:vector(packetBytes):endtime nan
scalar MultiCell.ue22.ipv4.arp arpRequestSent:vector(packetBytes):count 0
scalar MultiCell.ue22.ipv4.arp arpRequestSent:vector(packetBytes):sum 0
scalar MultiCell.ue22.ipv4.arp arpRequestSent:vector(packetBytes):sumweights 0
scalar MultiCell.ue22.ipv4.arp arpRequestSent:vector(packetBytes):mean -nan
scalar MultiCell.ue22.ipv4.arp arpRequestSent:vector(packetBytes):stddev nan
scalar MultiCell.ue22.ipv4.arp arpRequestSent:vector(packetBytes):min inf
scalar MultiCell.ue22.ipv4.arp arpRequestSent:vector(packetBytes):max -inf
scalar MultiCell.ue22.ipv4.arp arpRequestSent:vector(packetBytes):starttime nan
scalar MultiCell.ue22.ipv4.arp arpRequestSent:vector(packetBytes):endtime nan
scalar MultiCell.ue22.ipv4.arp arpReplySent:vector(packetBytes):count 0
scalar MultiCell.ue22.ipv4.arp arpReplySent:vector(packetBytes):sum 0
scalar MultiCell.ue22.ipv4.arp arpReplySent:vector(packetBytes):sumweights 0
scalar MultiCell.ue22.ipv4.arp arpReplySent:vector(packetBytes):mean -nan
scalar MultiCell.ue22.ipv4.arp arpReplySent:vector(packetBytes):stddev nan
scalar MultiCell.ue22.ipv4.arp arpReplySent:vector(packetBytes):min inf
scalar MultiCell.ue22.ipv4.arp arpReplySent:vector(packetBytes):max -inf
scalar MultiCell.ue22.ipv4.arp arpReplySent:vector(packetBytes):starttime nan
scalar MultiCell.ue22.ipv4.arp arpReplySent:vector(packetBytes):endtime nan
scalar MultiCell.ue22.udp packetSent:vector(packetBytes):count 0
scalar MultiCell.ue22.udp packetSent:vector(packetBytes):sum 0
scalar MultiCell.ue22.udp packetSent:vector(packetBytes):sumweights 0
scalar MultiCell.ue22.udp packetSent:vector(packetBytes):mean -nan
scalar MultiCell.ue22.udp packetSent:vector(packetBytes):stddev nan
scalar MultiCell.ue22.udp packetSent:vector(packetBytes):min inf
scalar MultiCell.ue22.udp packetSent:vector(packetBytes):max -inf
scalar MultiCell.ue22.udp packetSent:vector(packetBytes):starttime nan
scalar MultiCell.ue22.udp packetSent:vector(packetBytes):endtime nan
scalar MultiCell.ue22.udp packetReceived:vector(packetBytes):count 0
scalar MultiCell.ue22.udp packetReceived:vector(packetBytes):sum 0
scalar MultiCell.ue22.udp packetReceived:vector(packetBytes):sumweights 0
scalar MultiCell.ue22.udp packetReceived:vector(packetBytes):mean -nan
scalar MultiCell.ue22.udp packetReceived:vector(packetBytes):stddev nan
scalar MultiCell.ue22.udp packetReceived:vector(packetBytes):min inf
scalar MultiCell.ue22.udp packetReceived:vector(packetBytes):max -inf
scalar MultiCell.ue22.udp packetReceived:vector(packetBytes):starttime nan
scalar MultiCell.ue22.udp packetReceived:vector(packetBytes):endtime nan
scalar MultiCell.ue22.udp passedUpPk:vector(count):count 0
scalar MultiCell.ue22.udp passedUpPk:vector(count):sum 0
scalar MultiCell.ue22.udp passedUpPk:vector(count):sumweights 0
scalar MultiCell.ue22.udp passedUpPk:vector(count):mean -nan
scalar MultiCell.ue22.udp passedUpPk:vector(count):stddev nan
scalar MultiCell.ue22.udp passedUpPk:vector(count):min inf
scalar MultiCell.ue22.udp passedUpPk:vector(count):max -inf
scalar MultiCell.ue22.udp passedUpPk:vector(count):starttime nan
scalar MultiCell.ue22.udp passedUpPk:vector(count):endtime nan
scalar MultiCell.ue22.udp droppedPkWrongPort:vector(count):count 0
scalar MultiCell.ue22.udp droppedPkWrongPort:vector(count):sum 0
scalar MultiCell.ue22.udp droppedPkWrongPort:vector(count):sumweights 0
scalar MultiCell.ue22.udp droppedPkWrongPort:vector(count):mean -nan
scalar MultiCell.ue22.udp droppedPkWrongPort:vector(count):stddev nan
scalar MultiCell.ue22.udp droppedPkWrongPort:vector(count):min inf
scalar MultiCell.ue22.udp droppedPkWrongPort:vector(count):max -inf
scalar MultiCell.ue22.udp droppedPkWrongPort:vector(count):starttime nan
scalar MultiCell.ue22.udp droppedPkWrongPort:vector(count):endtime nan
scalar MultiCell.ue22.udp droppedPkBadChecksum:vector(count):count 0
scalar MultiCell.ue22.udp droppedPkBadChecksum:vector(count):sum 0
scalar MultiCell.ue22.udp droppedPkBadChecksum:vector(count):sumweights 0
scalar MultiCell.ue22.udp droppedPkBadChecksum:vector(count):mean -nan
scalar MultiCell.ue22.udp droppedPkBadChecksum:vector(count):stddev nan
scalar MultiCell.ue22.udp droppedPkBadChecksum:vector(count):min inf
scalar MultiCell.ue22.udp droppedPkBadChecksum:vector(count):max -inf
scalar MultiCell.ue22.udp droppedPkBadChecksum:vector(count):starttime nan
scalar MultiCell.ue22.udp droppedPkBadChecksum:vector(count):endtime nan
scalar MultiCell.ue22.app[0] voIPFrameDelay:vector:count 0
scalar MultiCell.ue22.app[0] voIPFrameDelay:vector:sum 0
scalar MultiCell.ue22.app[0] voIPFrameDelay:vector:sumweights 0
scalar MultiCell.ue22.app[0] voIPFrameDelay:vector:mean -nan
scalar MultiCell.ue22.app[0] voIPFrameDelay:vector:stddev nan
scalar MultiCell.ue22.app[0] voIPFrameDelay:vector:min inf
scalar MultiCell.ue22.app[0] voIPFrameDelay:vector:max -inf
scalar MultiCell.ue22.app[0] voIPFrameDelay:vector:starttime nan
scalar MultiCell.ue22.app[0] voIPFrameDelay:vector:endtime nan
scalar MultiCell.ue22.app[0] voIPReceivedThroughput:vector:count 0
scalar MultiCell.ue22.app[0] voIPReceivedThroughput:vector:sum 0
scalar MultiCell.ue22.app[0] voIPReceivedThroughput:vector:sumweights 0
scalar MultiCell.ue22.app[0] voIPReceivedThroughput:vector:mean -nan
scalar MultiCell.ue22.app[0] voIPReceivedThroughput:vector:stddev nan
scalar MultiCell.ue22.app[0] voIPReceivedThroughput:vector:min inf
scalar MultiCell.ue22.app[0] voIPReceivedThroughput:vector:max -inf
scalar MultiCell.ue22.app[0] voIPReceivedThroughput:vector:starttime nan
scalar MultiCell.ue22.app[0] voIPReceivedThroughput:vector:endtime nan

