version 3
run VoIP-0-20260712-20:59:33-252491
attr configname VoIP
attr datetime 20260712-20:59:33
attr datetimef 20260712-205933
attr experiment VoIP
attr inifile omnetpp.ini
attr iterationvars ""
attr iterationvarsd ""
attr iterationvarsf ""
attr measurement ""
attr network simu5g.simulations.lte.networks.MultiCell
attr processid 252491
attr repetition 0
attr replication #0
attr resultdir results
attr runnumber 0
attr seedset 0
config **.param-recording false
config image-path /home/andras/projects/Simu5G-fork/simu5g-fork/images
config output-scalar-file results/omnetpp.ini-VoIP-#0.sca
config output-scalar-precision 17
config output-vector-file results/omnetpp.ini-VoIP-#0.vec
config output-vector-precision 17
config record-eventlog false
config sim-time-limit 20s
config **.mac.schedulingDisciplineDl "\"MAXCI\""
config **.mac.schedulingDisciplineUl "\"MAXCI\""
config *.ue*.numApps 1
config *.server.numApps 4
config **.ue1*.servingNodeId 1
config **.ue2*.servingNodeId 2
config *.ue*.mobility.initialMovementHeading "uniform(0deg, 360deg)"
config *.ue*.mobility.constraintAreaMaxX 1000m
config *.ue*.mobility.constraintAreaMaxY 1000m
config *.ue*.mobility.constraintAreaMinX 0m
config *.ue*.mobility.constraintAreaMinY 0m
config *.ue*.mobility.initFromDisplayString false
config *.ue*.mobility.initialX uniform(0m,300m)
config *.ue*.mobility.initialY uniform(0m,300m)
config *.ue*.mobility.initialZ 0m
config *.ue*.mobility.speed 0mps
config *.ue*.mobility.typename LinearMobility
config *.ue*.app[*].typename VoipReceiver
config *.ue*.app[0].localPort 3000
config *.server.app[*].packetSize 40B
config *.server.app[0].destAddress "\"ue11\""
config *.server.app[1].destAddress "\"ue12\""
config *.server.app[2].destAddress "\"ue21\""
config *.server.app[3].destAddress "\"ue22\""
config *.server.app[*].destPort 3000
config *.server.app[*].localPort 3088+ancestorIndex(0)
config *.server.app[*].typename VoipSender
config *.server.app[*].startTime uniform(0s,0.02s)
config sim-time-limit 20s
config network simu5g.simulations.lte.networks.MultiCell
config **.routingRecorder.enabled false
config **.vector-recording false
config seed-set 0
config **.cellularNic.channelModel[0].downlinkInterference true
config **.mobility.constraintAreaMinZ 0m
config **.mobility.constraintAreaMaxZ 0m
config **.mobility.initFromDisplayString true
config **.numBands 6
config **.ueTxPower 26dBm
config **.eNodeBTxPower 40dBm
config *.configurator.config "xmldoc(\"./demo.xml\")"

scalar MultiCell.server.lo[0].lo rcvdPkFromHl:count 0
scalar MultiCell.server.lo[0].lo rcvdPkFromHl:sum(packetBytes) 0
scalar MultiCell.server.lo[0].lo passedUpPk:count 0
scalar MultiCell.server.lo[0].lo passedUpPk:sum(packetBytes) 0
scalar MultiCell.server.lo[0] packetDropInterfaceDown:count 0
scalar MultiCell.server.lo[0] packetDropInterfaceDown:sum(packetBytes) 0
scalar MultiCell.server.lo[0] packetDropNoCarrier:count 0
scalar MultiCell.server.lo[0] packetDropNoCarrier:sum(packetBytes) 0
scalar MultiCell.server.ppp[0].queue queueLength:last 0
scalar MultiCell.server.ppp[0].queue queueLength:max 0
scalar MultiCell.server.ppp[0].queue queueLength:timeavg 0
scalar MultiCell.server.ppp[0].queue queueBitLength:last 0
scalar MultiCell.server.ppp[0].queue queueBitLength:max 0
scalar MultiCell.server.ppp[0].queue queueBitLength:timeavg 0
scalar MultiCell.server.ppp[0].queue outgoingPackets:count 2760
scalar MultiCell.server.ppp[0].queue outgoingPacketLengths:sum 1501440
scalar MultiCell.server.ppp[0].queue incomingPackets:count 2760
scalar MultiCell.server.ppp[0].queue incomingPacketLengths:sum 1501440
scalar MultiCell.server.ppp[0].queue droppedPacketsQueueOverflow:count 0
scalar MultiCell.server.ppp[0].queue droppedPacketLengthsQueueOverflow:sum 0
scalar MultiCell.server.ppp[0].ppp transmissionState:timeavg 8.2799999999997157e-06
scalar MultiCell.server.ppp[0].ppp rxPkOk:count 0
scalar MultiCell.server.ppp[0].ppp rxPkOk:sum(packetBytes) 0
scalar MultiCell.server.ppp[0].ppp txPk:count 2760
scalar MultiCell.server.ppp[0].ppp txPk:sum(packetBytes) 207000
scalar MultiCell.server.ppp[0].ppp rcvdPkFromHl:count 2760
scalar MultiCell.server.ppp[0].ppp rcvdPkFromHl:sum(packetBytes) 187680
scalar MultiCell.server.ppp[0].ppp passedUpPk:count 0
scalar MultiCell.server.ppp[0].ppp passedUpPk:sum(packetBytes) 0
scalar MultiCell.server.ppp[0].ppp packetDropIncorrectlyReceived:count 0
scalar MultiCell.server.ppp[0].ppp packetDropIncorrectlyReceived:sum(packetBytes) 0
scalar MultiCell.server.ppp[0].ppp packetDropInterfaceDown:count 0
scalar MultiCell.server.ppp[0].ppp packetDropInterfaceDown:sum(packetBytes) 0
scalar MultiCell.server.ppp[0] packetDropInterfaceDown:count 0
scalar MultiCell.server.ppp[0] packetDropInterfaceDown:sum(packetBytes) 0
scalar MultiCell.server.ppp[0] packetDropNoCarrier:count 0
scalar MultiCell.server.ppp[0] packetDropNoCarrier:sum(packetBytes) 0
scalar MultiCell.server.ipv4.ip packetDropAddressResolutionFailed:count 0
scalar MultiCell.server.ipv4.ip packetDropAddressResolutionFailed:sum(packetBytes) 0
scalar MultiCell.server.ipv4.ip packetDropHopLimitReached:count 0
scalar MultiCell.server.ipv4.ip packetDropHopLimitReached:sum(packetBytes) 0
scalar MultiCell.server.ipv4.ip packetDropForwardingDisabled:count 0
scalar MultiCell.server.ipv4.ip packetDropForwardingDisabled:sum(packetBytes) 0
scalar MultiCell.server.ipv4.ip packetDropNoInterfaceFound:count 0
scalar MultiCell.server.ipv4.ip packetDropNoInterfaceFound:sum(packetBytes) 0
scalar MultiCell.server.ipv4.ip packetDropNoRouteFound:count 0
scalar MultiCell.server.ipv4.ip packetDropNoRouteFound:sum(packetBytes) 0
scalar MultiCell.server.ipv4.ip packetDropUndefined:count 0
scalar MultiCell.server.ipv4.ip packetDropUndefined:sum(packetBytes) 0
scalar MultiCell.server.ipv4.arp arpResolutionFailed:count 0
scalar MultiCell.server.ipv4.arp arpResolutionCompleted:count 0
scalar MultiCell.server.ipv4.arp arpResolutionInitiated:count 0
scalar MultiCell.server.ipv4.arp arpReplySent:count 0
scalar MultiCell.server.ipv4.arp arpReplySent:sum(packetBytes) 0
scalar MultiCell.server.ipv4.arp arpRequestSent:count 0
scalar MultiCell.server.ipv4.arp arpRequestSent:sum(packetBytes) 0
scalar MultiCell.server.udp packetReceived:count 0
scalar MultiCell.server.udp packetReceived:sum(packetBytes) 0
scalar MultiCell.server.udp packetSent:count 2760
scalar MultiCell.server.udp packetSent:sum(packetBytes) 132480
scalar MultiCell.server.udp passedUpPk:count 0
scalar MultiCell.server.udp droppedPkWrongPort:count 0
scalar MultiCell.server.udp droppedPkBadChecksum:count 0
scalar MultiCell.server.app[0] voipGeneratedThroughput:simu5g_rateavg 1832.6379156128521
scalar MultiCell.server.app[1] voipGeneratedThroughput:simu5g_rateavg 1155.4966022071087
scalar MultiCell.server.app[2] voipGeneratedThroughput:simu5g_rateavg 1025.2279609162392
scalar MultiCell.server.app[3] voipGeneratedThroughput:simu5g_rateavg 1426.4417459676977
scalar MultiCell.pgw.lo[0].lo rcvdPkFromHl:count 0
scalar MultiCell.pgw.lo[0].lo rcvdPkFromHl:sum(packetBytes) 0
scalar MultiCell.pgw.lo[0].lo passedUpPk:count 0
scalar MultiCell.pgw.lo[0].lo passedUpPk:sum(packetBytes) 0
scalar MultiCell.pgw.lo[0] packetDropInterfaceDown:count 0
scalar MultiCell.pgw.lo[0] packetDropInterfaceDown:sum(packetBytes) 0
scalar MultiCell.pgw.lo[0] packetDropNoCarrier:count 0
scalar MultiCell.pgw.lo[0] packetDropNoCarrier:sum(packetBytes) 0
scalar MultiCell.pgw.ppp[0].queue queueLength:last 0
scalar MultiCell.pgw.ppp[0].queue queueLength:max 0
scalar MultiCell.pgw.ppp[0].queue queueLength:timeavg 0
scalar MultiCell.pgw.ppp[0].queue queueBitLength:last 0
scalar MultiCell.pgw.ppp[0].queue queueBitLength:max 0
scalar MultiCell.pgw.ppp[0].queue queueBitLength:timeavg 0
scalar MultiCell.pgw.ppp[0].queue outgoingPackets:count 1457
scalar MultiCell.pgw.ppp[0].queue outgoingPacketLengths:sum 1212224
scalar MultiCell.pgw.ppp[0].queue incomingPackets:count 1457
scalar MultiCell.pgw.ppp[0].queue incomingPacketLengths:sum 1212224
scalar MultiCell.pgw.ppp[0].queue droppedPacketsQueueOverflow:count 0
scalar MultiCell.pgw.ppp[0].queue droppedPacketLengthsQueueOverflow:sum 0
scalar MultiCell.pgw.ppp[0].ppp transmissionState:timeavg 6.4690800000001727e-06
scalar MultiCell.pgw.ppp[0].ppp rxPkOk:count 0
scalar MultiCell.pgw.ppp[0].ppp rxPkOk:sum(packetBytes) 0
scalar MultiCell.pgw.ppp[0].ppp txPk:count 1457
scalar MultiCell.pgw.ppp[0].ppp txPk:sum(packetBytes) 161727
scalar MultiCell.pgw.ppp[0].ppp rcvdPkFromHl:count 1457
scalar MultiCell.pgw.ppp[0].ppp rcvdPkFromHl:sum(packetBytes) 151528
scalar MultiCell.pgw.ppp[0].ppp passedUpPk:count 0
scalar MultiCell.pgw.ppp[0].ppp passedUpPk:sum(packetBytes) 0
scalar MultiCell.pgw.ppp[0].ppp packetDropIncorrectlyReceived:count 0
scalar MultiCell.pgw.ppp[0].ppp packetDropIncorrectlyReceived:sum(packetBytes) 0
scalar MultiCell.pgw.ppp[0].ppp packetDropInterfaceDown:count 0
scalar MultiCell.pgw.ppp[0].ppp packetDropInterfaceDown:sum(packetBytes) 0
scalar MultiCell.pgw.ppp[0] packetDropInterfaceDown:count 0
scalar MultiCell.pgw.ppp[0] packetDropInterfaceDown:sum(packetBytes) 0
scalar MultiCell.pgw.ppp[0] packetDropNoCarrier:count 0
scalar MultiCell.pgw.ppp[0] packetDropNoCarrier:sum(packetBytes) 0
scalar MultiCell.pgw.ppp[1].queue queueLength:last 0
scalar MultiCell.pgw.ppp[1].queue queueLength:max 0
scalar MultiCell.pgw.ppp[1].queue queueLength:timeavg 0
scalar MultiCell.pgw.ppp[1].queue queueBitLength:last 0
scalar MultiCell.pgw.ppp[1].queue queueBitLength:max 0
scalar MultiCell.pgw.ppp[1].queue queueBitLength:timeavg 0
scalar MultiCell.pgw.ppp[1].queue outgoingPackets:count 1303
scalar MultiCell.pgw.ppp[1].queue outgoingPacketLengths:sum 1084096
scalar MultiCell.pgw.ppp[1].queue incomingPackets:count 1303
scalar MultiCell.pgw.ppp[1].queue incomingPacketLengths:sum 1084096
scalar MultiCell.pgw.ppp[1].queue droppedPacketsQueueOverflow:count 0
scalar MultiCell.pgw.ppp[1].queue droppedPacketLengthsQueueOverflow:sum 0
scalar MultiCell.pgw.ppp[1].ppp transmissionState:timeavg 5.7853200000001356e-06
scalar MultiCell.pgw.ppp[1].ppp rxPkOk:count 0
scalar MultiCell.pgw.ppp[1].ppp rxPkOk:sum(packetBytes) 0
scalar MultiCell.pgw.ppp[1].ppp txPk:count 1303
scalar MultiCell.pgw.ppp[1].ppp txPk:sum(packetBytes) 144633
scalar MultiCell.pgw.ppp[1].ppp rcvdPkFromHl:count 1303
scalar MultiCell.pgw.ppp[1].ppp rcvdPkFromHl:sum(packetBytes) 135512
scalar MultiCell.pgw.ppp[1].ppp passedUpPk:count 0
scalar MultiCell.pgw.ppp[1].ppp passedUpPk:sum(packetBytes) 0
scalar MultiCell.pgw.ppp[1].ppp packetDropIncorrectlyReceived:count 0
scalar MultiCell.pgw.ppp[1].ppp packetDropIncorrectlyReceived:sum(packetBytes) 0
scalar MultiCell.pgw.ppp[1].ppp packetDropInterfaceDown:count 0
scalar MultiCell.pgw.ppp[1].ppp packetDropInterfaceDown:sum(packetBytes) 0
scalar MultiCell.pgw.ppp[1] packetDropInterfaceDown:count 0
scalar MultiCell.pgw.ppp[1] packetDropInterfaceDown:sum(packetBytes) 0
scalar MultiCell.pgw.ppp[1] packetDropNoCarrier:count 0
scalar MultiCell.pgw.ppp[1] packetDropNoCarrier:sum(packetBytes) 0
scalar MultiCell.pgw.ipv4.ip packetDropAddressResolutionFailed:count 0
scalar MultiCell.pgw.ipv4.ip packetDropAddressResolutionFailed:sum(packetBytes) 0
scalar MultiCell.pgw.ipv4.ip packetDropHopLimitReached:count 0
scalar MultiCell.pgw.ipv4.ip packetDropHopLimitReached:sum(packetBytes) 0
scalar MultiCell.pgw.ipv4.ip packetDropForwardingDisabled:count 0
scalar MultiCell.pgw.ipv4.ip packetDropForwardingDisabled:sum(packetBytes) 0
scalar MultiCell.pgw.ipv4.ip packetDropNoInterfaceFound:count 0
scalar MultiCell.pgw.ipv4.ip packetDropNoInterfaceFound:sum(packetBytes) 0
scalar MultiCell.pgw.ipv4.ip packetDropNoRouteFound:count 0
scalar MultiCell.pgw.ipv4.ip packetDropNoRouteFound:sum(packetBytes) 0
scalar MultiCell.pgw.ipv4.ip packetDropUndefined:count 0
scalar MultiCell.pgw.ipv4.ip packetDropUndefined:sum(packetBytes) 0
scalar MultiCell.pgw.ipv4.arp arpResolutionFailed:count 0
scalar MultiCell.pgw.ipv4.arp arpResolutionCompleted:count 0
scalar MultiCell.pgw.ipv4.arp arpResolutionInitiated:count 0
scalar MultiCell.pgw.ipv4.arp arpReplySent:count 0
scalar MultiCell.pgw.ipv4.arp arpReplySent:sum(packetBytes) 0
scalar MultiCell.pgw.ipv4.arp arpRequestSent:count 0
scalar MultiCell.pgw.ipv4.arp arpRequestSent:sum(packetBytes) 0
scalar MultiCell.pgw.udp packetReceived:count 0
scalar MultiCell.pgw.udp packetReceived:sum(packetBytes) 0
scalar MultiCell.pgw.udp packetSent:count 2760
scalar MultiCell.pgw.udp packetSent:sum(packetBytes) 231840
scalar MultiCell.pgw.udp passedUpPk:count 0
scalar MultiCell.pgw.udp droppedPkWrongPort:count 0
scalar MultiCell.pgw.udp droppedPkBadChecksum:count 0
scalar MultiCell.pgw.dnPpp.queue queueLength:last 0
scalar MultiCell.pgw.dnPpp.queue queueLength:max 0
scalar MultiCell.pgw.dnPpp.queue queueLength:timeavg 0
scalar MultiCell.pgw.dnPpp.queue queueBitLength:last 0
scalar MultiCell.pgw.dnPpp.queue queueBitLength:max 0
scalar MultiCell.pgw.dnPpp.queue queueBitLength:timeavg 0
scalar MultiCell.pgw.dnPpp.queue outgoingPackets:count 0
scalar MultiCell.pgw.dnPpp.queue outgoingPacketLengths:sum 0
scalar MultiCell.pgw.dnPpp.queue incomingPackets:count 0
scalar MultiCell.pgw.dnPpp.queue incomingPacketLengths:sum 0
scalar MultiCell.pgw.dnPpp.queue droppedPacketsQueueOverflow:count 0
scalar MultiCell.pgw.dnPpp.queue droppedPacketLengthsQueueOverflow:sum 0
scalar MultiCell.pgw.dnPpp.ppp transmissionState:timeavg 0
scalar MultiCell.pgw.dnPpp.ppp rxPkOk:count 2760
scalar MultiCell.pgw.dnPpp.ppp rxPkOk:sum(packetBytes) 207000
scalar MultiCell.pgw.dnPpp.ppp txPk:count 0
scalar MultiCell.pgw.dnPpp.ppp txPk:sum(packetBytes) 0
scalar MultiCell.pgw.dnPpp.ppp rcvdPkFromHl:count 0
scalar MultiCell.pgw.dnPpp.ppp rcvdPkFromHl:sum(packetBytes) 0
scalar MultiCell.pgw.dnPpp.ppp passedUpPk:count 2760
scalar MultiCell.pgw.dnPpp.ppp passedUpPk:sum(packetBytes) 187680
scalar MultiCell.pgw.dnPpp.ppp packetDropIncorrectlyReceived:count 0
scalar MultiCell.pgw.dnPpp.ppp packetDropIncorrectlyReceived:sum(packetBytes) 0
scalar MultiCell.pgw.dnPpp.ppp packetDropInterfaceDown:count 0
scalar MultiCell.pgw.dnPpp.ppp packetDropInterfaceDown:sum(packetBytes) 0
scalar MultiCell.pgw.dnPpp packetDropInterfaceDown:count 0
scalar MultiCell.pgw.dnPpp packetDropInterfaceDown:sum(packetBytes) 0
scalar MultiCell.pgw.dnPpp packetDropNoCarrier:count 0
scalar MultiCell.pgw.dnPpp packetDropNoCarrier:sum(packetBytes) 0
scalar MultiCell.router.lo[0].lo rcvdPkFromHl:count 0
scalar MultiCell.router.lo[0].lo rcvdPkFromHl:sum(packetBytes) 0
scalar MultiCell.router.lo[0].lo passedUpPk:count 0
scalar MultiCell.router.lo[0].lo passedUpPk:sum(packetBytes) 0
scalar MultiCell.router.lo[0] packetDropInterfaceDown:count 0
scalar MultiCell.router.lo[0] packetDropInterfaceDown:sum(packetBytes) 0
scalar MultiCell.router.lo[0] packetDropNoCarrier:count 0
scalar MultiCell.router.lo[0] packetDropNoCarrier:sum(packetBytes) 0
scalar MultiCell.router.ppp[0].queue queueLength:last 0
scalar MultiCell.router.ppp[0].queue queueLength:max 0
scalar MultiCell.router.ppp[0].queue queueLength:timeavg 0
scalar MultiCell.router.ppp[0].queue queueBitLength:last 0
scalar MultiCell.router.ppp[0].queue queueBitLength:max 0
scalar MultiCell.router.ppp[0].queue queueBitLength:timeavg 0
scalar MultiCell.router.ppp[0].queue outgoingPackets:count 0
scalar MultiCell.router.ppp[0].queue outgoingPacketLengths:sum 0
scalar MultiCell.router.ppp[0].queue incomingPackets:count 0
scalar MultiCell.router.ppp[0].queue incomingPacketLengths:sum 0
scalar MultiCell.router.ppp[0].queue droppedPacketsQueueOverflow:count 0
scalar MultiCell.router.ppp[0].queue droppedPacketLengthsQueueOverflow:sum 0
scalar MultiCell.router.ppp[0].ppp transmissionState:timeavg 0
scalar MultiCell.router.ppp[0].ppp rxPkOk:count 2760
scalar MultiCell.router.ppp[0].ppp rxPkOk:sum(packetBytes) 207000
scalar MultiCell.router.ppp[0].ppp txPk:count 0
scalar MultiCell.router.ppp[0].ppp txPk:sum(packetBytes) 0
scalar MultiCell.router.ppp[0].ppp rcvdPkFromHl:count 0
scalar MultiCell.router.ppp[0].ppp rcvdPkFromHl:sum(packetBytes) 0
scalar MultiCell.router.ppp[0].ppp passedUpPk:count 2760
scalar MultiCell.router.ppp[0].ppp passedUpPk:sum(packetBytes) 187680
scalar MultiCell.router.ppp[0].ppp packetDropIncorrectlyReceived:count 0
scalar MultiCell.router.ppp[0].ppp packetDropIncorrectlyReceived:sum(packetBytes) 0
scalar MultiCell.router.ppp[0].ppp packetDropInterfaceDown:count 0
scalar MultiCell.router.ppp[0].ppp packetDropInterfaceDown:sum(packetBytes) 0
scalar MultiCell.router.ppp[0] packetDropInterfaceDown:count 0
scalar MultiCell.router.ppp[0] packetDropInterfaceDown:sum(packetBytes) 0
scalar MultiCell.router.ppp[0] packetDropNoCarrier:count 0
scalar MultiCell.router.ppp[0] packetDropNoCarrier:sum(packetBytes) 0
scalar MultiCell.router.ppp[1].queue queueLength:last 0
scalar MultiCell.router.ppp[1].queue queueLength:max 0
scalar MultiCell.router.ppp[1].queue queueLength:timeavg 0
scalar MultiCell.router.ppp[1].queue queueBitLength:last 0
scalar MultiCell.router.ppp[1].queue queueBitLength:max 0
scalar MultiCell.router.ppp[1].queue queueBitLength:timeavg 0
scalar MultiCell.router.ppp[1].queue outgoingPackets:count 2760
scalar MultiCell.router.ppp[1].queue outgoingPacketLengths:sum 1501440
scalar MultiCell.router.ppp[1].queue incomingPackets:count 2760
scalar MultiCell.router.ppp[1].queue incomingPacketLengths:sum 1501440
scalar MultiCell.router.ppp[1].queue droppedPacketsQueueOverflow:count 0
scalar MultiCell.router.ppp[1].queue droppedPacketLengthsQueueOverflow:sum 0
scalar MultiCell.router.ppp[1].ppp transmissionState:timeavg 8.2799999999997157e-06
scalar MultiCell.router.ppp[1].ppp rxPkOk:count 0
scalar MultiCell.router.ppp[1].ppp rxPkOk:sum(packetBytes) 0
scalar MultiCell.router.ppp[1].ppp txPk:count 2760
scalar MultiCell.router.ppp[1].ppp txPk:sum(packetBytes) 207000
scalar MultiCell.router.ppp[1].ppp rcvdPkFromHl:count 2760
scalar MultiCell.router.ppp[1].ppp rcvdPkFromHl:sum(packetBytes) 187680
scalar MultiCell.router.ppp[1].ppp passedUpPk:count 0
scalar MultiCell.router.ppp[1].ppp passedUpPk:sum(packetBytes) 0
scalar MultiCell.router.ppp[1].ppp packetDropIncorrectlyReceived:count 0
scalar MultiCell.router.ppp[1].ppp packetDropIncorrectlyReceived:sum(packetBytes) 0
scalar MultiCell.router.ppp[1].ppp packetDropInterfaceDown:count 0
scalar MultiCell.router.ppp[1].ppp packetDropInterfaceDown:sum(packetBytes) 0
scalar MultiCell.router.ppp[1] packetDropInterfaceDown:count 0
scalar MultiCell.router.ppp[1] packetDropInterfaceDown:sum(packetBytes) 0
scalar MultiCell.router.ppp[1] packetDropNoCarrier:count 0
scalar MultiCell.router.ppp[1] packetDropNoCarrier:sum(packetBytes) 0
scalar MultiCell.router.ipv4.ip packetDropAddressResolutionFailed:count 0
scalar MultiCell.router.ipv4.ip packetDropAddressResolutionFailed:sum(packetBytes) 0
scalar MultiCell.router.ipv4.ip packetDropHopLimitReached:count 0
scalar MultiCell.router.ipv4.ip packetDropHopLimitReached:sum(packetBytes) 0
scalar MultiCell.router.ipv4.ip packetDropForwardingDisabled:count 0
scalar MultiCell.router.ipv4.ip packetDropForwardingDisabled:sum(packetBytes) 0
scalar MultiCell.router.ipv4.ip packetDropNoInterfaceFound:count 0
scalar MultiCell.router.ipv4.ip packetDropNoInterfaceFound:sum(packetBytes) 0
scalar MultiCell.router.ipv4.ip packetDropNoRouteFound:count 0
scalar MultiCell.router.ipv4.ip packetDropNoRouteFound:sum(packetBytes) 0
scalar MultiCell.router.ipv4.ip packetDropUndefined:count 0
scalar MultiCell.router.ipv4.ip packetDropUndefined:sum(packetBytes) 0
scalar MultiCell.router.ipv4.arp arpResolutionFailed:count 0
scalar MultiCell.router.ipv4.arp arpResolutionCompleted:count 0
scalar MultiCell.router.ipv4.arp arpResolutionInitiated:count 0
scalar MultiCell.router.ipv4.arp arpReplySent:count 0
scalar MultiCell.router.ipv4.arp arpReplySent:sum(packetBytes) 0
scalar MultiCell.router.ipv4.arp arpRequestSent:count 0
scalar MultiCell.router.ipv4.arp arpRequestSent:sum(packetBytes) 0
scalar MultiCell.eNodeB1.cellularNic.rlcMux rlcCellThroughputD2D:simu5g_rateavg -nan
scalar MultiCell.eNodeB1.cellularNic.rlcMux rlcPduThroughputD2D:simu5g_rateavg -nan
scalar MultiCell.eNodeB1.cellularNic.rlcMux rlcPduDelayD2D:mean -nan
scalar MultiCell.eNodeB1.cellularNic.rlcMux rlcThroughputD2D:simu5g_rateavg -nan
scalar MultiCell.eNodeB1.cellularNic.rlcMux rlcDelayD2D:mean -nan
scalar MultiCell.eNodeB1.cellularNic.rlcMux rlcCellThroughputUl:simu5g_rateavg -nan
scalar MultiCell.eNodeB1.cellularNic.rlcMux rlcCellThroughputDl:simu5g_rateavg 9584.2534607887137
scalar MultiCell.eNodeB1.cellularNic.rlcMux rlcPduThroughputUl:simu5g_rateavg -nan
scalar MultiCell.eNodeB1.cellularNic.rlcMux rlcPduThroughputDl:simu5g_rateavg -nan
scalar MultiCell.eNodeB1.cellularNic.rlcMux rlcPduDelayUl:mean -nan
scalar MultiCell.eNodeB1.cellularNic.rlcMux rlcPduDelayDl:mean -nan
scalar MultiCell.eNodeB1.cellularNic.rlcMux rlcThroughputUl:simu5g_rateavg -nan
scalar MultiCell.eNodeB1.cellularNic.rlcMux rlcThroughputDl:simu5g_rateavg -nan
scalar MultiCell.eNodeB1.cellularNic.rlcMux rlcDelayUl:mean -nan
scalar MultiCell.eNodeB1.cellularNic.rlcMux rlcDelayDl:mean -nan
scalar MultiCell.eNodeB1.cellularNic.rlcMux sentPacketToLowerLayer:count 2914
scalar MultiCell.eNodeB1.cellularNic.rlcMux sentPacketToLowerLayer:sum(packetBytes) 203980
scalar MultiCell.eNodeB1.cellularNic.rlcMux receivedPacketFromLowerLayer:count 0
scalar MultiCell.eNodeB1.cellularNic.rlcMux receivedPacketFromLowerLayer:sum(packetBytes) 0
scalar MultiCell.eNodeB1.cellularNic.mac avgServedBlocksUl:mean 0
scalar MultiCell.eNodeB1.cellularNic.mac avgServedBlocksDl:mean 0.13114999999999999
scalar MultiCell.eNodeB1.cellularNic.mac harqTxAttemptsUl:mean -nan
scalar MultiCell.eNodeB1.cellularNic.mac harqTxAttemptsDl:mean -nan
scalar MultiCell.eNodeB1.cellularNic.mac harqErrorRate_4th_Ul:mean -nan
scalar MultiCell.eNodeB1.cellularNic.mac harqErrorRate_4th_Dl:mean -nan
scalar MultiCell.eNodeB1.cellularNic.mac harqErrorRate_3rd_Ul:mean -nan
scalar MultiCell.eNodeB1.cellularNic.mac harqErrorRate_3rd_Dl:mean -nan
scalar MultiCell.eNodeB1.cellularNic.mac harqErrorRate_2nd_Ul:mean -nan
scalar MultiCell.eNodeB1.cellularNic.mac harqErrorRate_2nd_Dl:mean -nan
scalar MultiCell.eNodeB1.cellularNic.mac harqErrorRate_1st_Ul:mean -nan
scalar MultiCell.eNodeB1.cellularNic.mac harqErrorRate_1st_Dl:mean -nan
scalar MultiCell.eNodeB1.cellularNic.mac harqErrorRateUl:mean -nan
scalar MultiCell.eNodeB1.cellularNic.mac harqErrorRateDl:mean -nan
scalar MultiCell.eNodeB1.cellularNic.mac macCellPacketLossUl:mean -nan
scalar MultiCell.eNodeB1.cellularNic.mac macCellPacketLossDl:mean 0
scalar MultiCell.eNodeB1.cellularNic.mac macPacketLossUl:mean -nan
scalar MultiCell.eNodeB1.cellularNic.mac macPacketLossDl:mean -nan
scalar MultiCell.eNodeB1.cellularNic.mac macThroughputUl:simu5g_rateavg -nan
scalar MultiCell.eNodeB1.cellularNic.mac macThroughputDl:simu5g_rateavg -nan
scalar MultiCell.eNodeB1.cellularNic.mac macDelayUl:mean -nan
scalar MultiCell.eNodeB1.cellularNic.mac macDelayDl:mean -nan
scalar MultiCell.eNodeB1.cellularNic.mac macCellThroughputUl:simu5g_rateavg -nan
scalar MultiCell.eNodeB1.cellularNic.mac macCellThroughputDl:simu5g_rateavg 10144.339844199769
scalar MultiCell.eNodeB1.cellularNic.mac sentPacketToLowerLayer:count 1740
scalar MultiCell.eNodeB1.cellularNic.mac sentPacketToLowerLayer:sum(packetBytes) 127020
scalar MultiCell.eNodeB1.cellularNic.mac sentPacketToUpperLayer:count 1457
scalar MultiCell.eNodeB1.cellularNic.mac sentPacketToUpperLayer:sum(packetBytes) 1457
scalar MultiCell.eNodeB1.cellularNic.mac receivedPacketFromLowerLayer:count 8408
scalar MultiCell.eNodeB1.cellularNic.mac receivedPacketFromLowerLayer:sum(packetBytes) 8408
scalar MultiCell.eNodeB1.cellularNic.mac receivedPacketFromUpperLayer:count 2914
scalar MultiCell.eNodeB1.cellularNic.mac receivedPacketFromUpperLayer:sum(packetBytes) 203980
scalar MultiCell.eNodeB1.cellularNic.mac macBufferOverFlowD2D:mean -nan
scalar MultiCell.eNodeB1.cellularNic.mac macBufferOverFlowUl:mean -nan
scalar MultiCell.eNodeB1.cellularNic.mac macBufferOverFlowDl:mean -nan
scalar MultiCell.eNodeB1.cellularNic.channelModel[0] measuredSinrUl:mean -nan
scalar MultiCell.eNodeB1.cellularNic.channelModel[0] measuredSinrDl:mean -nan
scalar MultiCell.eNodeB1.cellularNic.channelModel[0] rcvdSinrD2D:mean -nan
scalar MultiCell.eNodeB1.cellularNic.channelModel[0] rcvdSinrUl:mean -nan
scalar MultiCell.eNodeB1.cellularNic.channelModel[0] rcvdSinrDl:mean -nan
scalar MultiCell.eNodeB1.cellularNic packetDropInterfaceDown:count 0
scalar MultiCell.eNodeB1.cellularNic packetDropInterfaceDown:sum(packetBytes) 0
scalar MultiCell.eNodeB1.cellularNic packetDropNoCarrier:count 0
scalar MultiCell.eNodeB1.cellularNic packetDropNoCarrier:sum(packetBytes) 0
scalar MultiCell.eNodeB1.pppIf.queue queueLength:last 0
scalar MultiCell.eNodeB1.pppIf.queue queueLength:max 0
scalar MultiCell.eNodeB1.pppIf.queue queueLength:timeavg 0
scalar MultiCell.eNodeB1.pppIf.queue queueBitLength:last 0
scalar MultiCell.eNodeB1.pppIf.queue queueBitLength:max 0
scalar MultiCell.eNodeB1.pppIf.queue queueBitLength:timeavg 0
scalar MultiCell.eNodeB1.pppIf.queue outgoingPackets:count 0
scalar MultiCell.eNodeB1.pppIf.queue outgoingPacketLengths:sum 0
scalar MultiCell.eNodeB1.pppIf.queue incomingPackets:count 0
scalar MultiCell.eNodeB1.pppIf.queue incomingPacketLengths:sum 0
scalar MultiCell.eNodeB1.pppIf.queue droppedPacketsQueueOverflow:count 0
scalar MultiCell.eNodeB1.pppIf.queue droppedPacketLengthsQueueOverflow:sum 0
scalar MultiCell.eNodeB1.pppIf.ppp transmissionState:timeavg 0
scalar MultiCell.eNodeB1.pppIf.ppp rxPkOk:count 1457
scalar MultiCell.eNodeB1.pppIf.ppp rxPkOk:sum(packetBytes) 161727
scalar MultiCell.eNodeB1.pppIf.ppp txPk:count 0
scalar MultiCell.eNodeB1.pppIf.ppp txPk:sum(packetBytes) 0
scalar MultiCell.eNodeB1.pppIf.ppp rcvdPkFromHl:count 0
scalar MultiCell.eNodeB1.pppIf.ppp rcvdPkFromHl:sum(packetBytes) 0
scalar MultiCell.eNodeB1.pppIf.ppp passedUpPk:count 1457
scalar MultiCell.eNodeB1.pppIf.ppp passedUpPk:sum(packetBytes) 151528
scalar MultiCell.eNodeB1.pppIf.ppp packetDropIncorrectlyReceived:count 0
scalar MultiCell.eNodeB1.pppIf.ppp packetDropIncorrectlyReceived:sum(packetBytes) 0
scalar MultiCell.eNodeB1.pppIf.ppp packetDropInterfaceDown:count 0
scalar MultiCell.eNodeB1.pppIf.ppp packetDropInterfaceDown:sum(packetBytes) 0
scalar MultiCell.eNodeB1.pppIf packetDropInterfaceDown:count 0
scalar MultiCell.eNodeB1.pppIf packetDropInterfaceDown:sum(packetBytes) 0
scalar MultiCell.eNodeB1.pppIf packetDropNoCarrier:count 0
scalar MultiCell.eNodeB1.pppIf packetDropNoCarrier:sum(packetBytes) 0
scalar MultiCell.eNodeB1.x2ppp[0].queue queueLength:last 0
scalar MultiCell.eNodeB1.x2ppp[0].queue queueLength:max 0
scalar MultiCell.eNodeB1.x2ppp[0].queue queueLength:timeavg 0
scalar MultiCell.eNodeB1.x2ppp[0].queue queueBitLength:last 0
scalar MultiCell.eNodeB1.x2ppp[0].queue queueBitLength:max 0
scalar MultiCell.eNodeB1.x2ppp[0].queue queueBitLength:timeavg 0
scalar MultiCell.eNodeB1.x2ppp[0].queue outgoingPackets:count 0
scalar MultiCell.eNodeB1.x2ppp[0].queue outgoingPacketLengths:sum 0
scalar MultiCell.eNodeB1.x2ppp[0].queue incomingPackets:count 0
scalar MultiCell.eNodeB1.x2ppp[0].queue incomingPacketLengths:sum 0
scalar MultiCell.eNodeB1.x2ppp[0].queue droppedPacketsQueueOverflow:count 0
scalar MultiCell.eNodeB1.x2ppp[0].queue droppedPacketLengthsQueueOverflow:sum 0
scalar MultiCell.eNodeB1.x2ppp[0].ppp transmissionState:timeavg 0
scalar MultiCell.eNodeB1.x2ppp[0].ppp rxPkOk:count 0
scalar MultiCell.eNodeB1.x2ppp[0].ppp rxPkOk:sum(packetBytes) 0
scalar MultiCell.eNodeB1.x2ppp[0].ppp txPk:count 0
scalar MultiCell.eNodeB1.x2ppp[0].ppp txPk:sum(packetBytes) 0
scalar MultiCell.eNodeB1.x2ppp[0].ppp rcvdPkFromHl:count 0
scalar MultiCell.eNodeB1.x2ppp[0].ppp rcvdPkFromHl:sum(packetBytes) 0
scalar MultiCell.eNodeB1.x2ppp[0].ppp passedUpPk:count 0
scalar MultiCell.eNodeB1.x2ppp[0].ppp passedUpPk:sum(packetBytes) 0
scalar MultiCell.eNodeB1.x2ppp[0].ppp packetDropIncorrectlyReceived:count 0
scalar MultiCell.eNodeB1.x2ppp[0].ppp packetDropIncorrectlyReceived:sum(packetBytes) 0
scalar MultiCell.eNodeB1.x2ppp[0].ppp packetDropInterfaceDown:count 0
scalar MultiCell.eNodeB1.x2ppp[0].ppp packetDropInterfaceDown:sum(packetBytes) 0
scalar MultiCell.eNodeB1.x2ppp[0] packetDropInterfaceDown:count 0
scalar MultiCell.eNodeB1.x2ppp[0] packetDropInterfaceDown:sum(packetBytes) 0
scalar MultiCell.eNodeB1.x2ppp[0] packetDropNoCarrier:count 0
scalar MultiCell.eNodeB1.x2ppp[0] packetDropNoCarrier:sum(packetBytes) 0
scalar MultiCell.eNodeB1.pppMEHostIf.queue queueLength:last 0
scalar MultiCell.eNodeB1.pppMEHostIf.queue queueLength:max 0
scalar MultiCell.eNodeB1.pppMEHostIf.queue queueLength:timeavg 0
scalar MultiCell.eNodeB1.pppMEHostIf.queue queueBitLength:last 0
scalar MultiCell.eNodeB1.pppMEHostIf.queue queueBitLength:max 0
scalar MultiCell.eNodeB1.pppMEHostIf.queue queueBitLength:timeavg 0
scalar MultiCell.eNodeB1.pppMEHostIf.queue outgoingPackets:count 0
scalar MultiCell.eNodeB1.pppMEHostIf.queue outgoingPacketLengths:sum 0
scalar MultiCell.eNodeB1.pppMEHostIf.queue incomingPackets:count 0
scalar MultiCell.eNodeB1.pppMEHostIf.queue incomingPacketLengths:sum 0
scalar MultiCell.eNodeB1.pppMEHostIf.queue droppedPacketsQueueOverflow:count 0
scalar MultiCell.eNodeB1.pppMEHostIf.queue droppedPacketLengthsQueueOverflow:sum 0
scalar MultiCell.eNodeB1.pppMEHostIf.ppp transmissionState:timeavg 0
scalar MultiCell.eNodeB1.pppMEHostIf.ppp rxPkOk:count 0
scalar MultiCell.eNodeB1.pppMEHostIf.ppp rxPkOk:sum(packetBytes) 0
scalar MultiCell.eNodeB1.pppMEHostIf.ppp txPk:count 0
scalar MultiCell.eNodeB1.pppMEHostIf.ppp txPk:sum(packetBytes) 0
scalar MultiCell.eNodeB1.pppMEHostIf.ppp rcvdPkFromHl:count 0
scalar MultiCell.eNodeB1.pppMEHostIf.ppp rcvdPkFromHl:sum(packetBytes) 0
scalar MultiCell.eNodeB1.pppMEHostIf.ppp passedUpPk:count 0
scalar MultiCell.eNodeB1.pppMEHostIf.ppp passedUpPk:sum(packetBytes) 0
scalar MultiCell.eNodeB1.pppMEHostIf.ppp packetDropIncorrectlyReceived:count 0
scalar MultiCell.eNodeB1.pppMEHostIf.ppp packetDropIncorrectlyReceived:sum(packetBytes) 0
scalar MultiCell.eNodeB1.pppMEHostIf.ppp packetDropInterfaceDown:count 0
scalar MultiCell.eNodeB1.pppMEHostIf.ppp packetDropInterfaceDown:sum(packetBytes) 0
scalar MultiCell.eNodeB1.pppMEHostIf packetDropInterfaceDown:count 0
scalar MultiCell.eNodeB1.pppMEHostIf packetDropInterfaceDown:sum(packetBytes) 0
scalar MultiCell.eNodeB1.pppMEHostIf packetDropNoCarrier:count 0
scalar MultiCell.eNodeB1.pppMEHostIf packetDropNoCarrier:sum(packetBytes) 0
scalar MultiCell.eNodeB1.ipv4.ip packetDropAddressResolutionFailed:count 0
scalar MultiCell.eNodeB1.ipv4.ip packetDropAddressResolutionFailed:sum(packetBytes) 0
scalar MultiCell.eNodeB1.ipv4.ip packetDropHopLimitReached:count 0
scalar MultiCell.eNodeB1.ipv4.ip packetDropHopLimitReached:sum(packetBytes) 0
scalar MultiCell.eNodeB1.ipv4.ip packetDropForwardingDisabled:count 0
scalar MultiCell.eNodeB1.ipv4.ip packetDropForwardingDisabled:sum(packetBytes) 0
scalar MultiCell.eNodeB1.ipv4.ip packetDropNoInterfaceFound:count 0
scalar MultiCell.eNodeB1.ipv4.ip packetDropNoInterfaceFound:sum(packetBytes) 0
scalar MultiCell.eNodeB1.ipv4.ip packetDropNoRouteFound:count 0
scalar MultiCell.eNodeB1.ipv4.ip packetDropNoRouteFound:sum(packetBytes) 0
scalar MultiCell.eNodeB1.ipv4.ip packetDropUndefined:count 0
scalar MultiCell.eNodeB1.ipv4.ip packetDropUndefined:sum(packetBytes) 0
scalar MultiCell.eNodeB1.ipv4.arp arpResolutionFailed:count 0
scalar MultiCell.eNodeB1.ipv4.arp arpResolutionCompleted:count 0
scalar MultiCell.eNodeB1.ipv4.arp arpResolutionInitiated:count 0
scalar MultiCell.eNodeB1.ipv4.arp arpReplySent:count 0
scalar MultiCell.eNodeB1.ipv4.arp arpReplySent:sum(packetBytes) 0
scalar MultiCell.eNodeB1.ipv4.arp arpRequestSent:count 0
scalar MultiCell.eNodeB1.ipv4.arp arpRequestSent:sum(packetBytes) 0
scalar MultiCell.eNodeB1.udp packetReceived:count 1457
scalar MultiCell.eNodeB1.udp packetReceived:sum(packetBytes) 122388
scalar MultiCell.eNodeB1.udp packetSent:count 0
scalar MultiCell.eNodeB1.udp packetSent:sum(packetBytes) 0
scalar MultiCell.eNodeB1.udp passedUpPk:count 1457
scalar MultiCell.eNodeB1.udp droppedPkWrongPort:count 0
scalar MultiCell.eNodeB1.udp droppedPkBadChecksum:count 0
scalar MultiCell.eNodeB2.cellularNic.rlcMux rlcCellThroughputD2D:simu5g_rateavg -nan
scalar MultiCell.eNodeB2.cellularNic.rlcMux rlcPduThroughputD2D:simu5g_rateavg -nan
scalar MultiCell.eNodeB2.cellularNic.rlcMux rlcPduDelayD2D:mean -nan
scalar MultiCell.eNodeB2.cellularNic.rlcMux rlcThroughputD2D:simu5g_rateavg -nan
scalar MultiCell.eNodeB2.cellularNic.rlcMux rlcDelayD2D:mean -nan
scalar MultiCell.eNodeB2.cellularNic.rlcMux rlcCellThroughputUl:simu5g_rateavg -nan
scalar MultiCell.eNodeB2.cellularNic.rlcMux rlcCellThroughputDl:simu5g_rateavg 9634.0397206328635
scalar MultiCell.eNodeB2.cellularNic.rlcMux rlcPduThroughputUl:simu5g_rateavg -nan
scalar MultiCell.eNodeB2.cellularNic.rlcMux rlcPduThroughputDl:simu5g_rateavg -nan
scalar MultiCell.eNodeB2.cellularNic.rlcMux rlcPduDelayUl:mean -nan
scalar MultiCell.eNodeB2.cellularNic.rlcMux rlcPduDelayDl:mean -nan
scalar MultiCell.eNodeB2.cellularNic.rlcMux rlcThroughputUl:simu5g_rateavg -nan
scalar MultiCell.eNodeB2.cellularNic.rlcMux rlcThroughputDl:simu5g_rateavg -nan
scalar MultiCell.eNodeB2.cellularNic.rlcMux rlcDelayUl:mean -nan
scalar MultiCell.eNodeB2.cellularNic.rlcMux rlcDelayDl:mean -nan
scalar MultiCell.eNodeB2.cellularNic.rlcMux sentPacketToLowerLayer:count 2606
scalar MultiCell.eNodeB2.cellularNic.rlcMux sentPacketToLowerLayer:sum(packetBytes) 182420
scalar MultiCell.eNodeB2.cellularNic.rlcMux receivedPacketFromLowerLayer:count 0
scalar MultiCell.eNodeB2.cellularNic.rlcMux receivedPacketFromLowerLayer:sum(packetBytes) 0
scalar MultiCell.eNodeB2.cellularNic.mac avgServedBlocksUl:mean 0
scalar MultiCell.eNodeB2.cellularNic.mac avgServedBlocksDl:mean 0.16619999999999999
scalar MultiCell.eNodeB2.cellularNic.mac harqTxAttemptsUl:mean -nan
scalar MultiCell.eNodeB2.cellularNic.mac harqTxAttemptsDl:mean -nan
scalar MultiCell.eNodeB2.cellularNic.mac harqErrorRate_4th_Ul:mean -nan
scalar MultiCell.eNodeB2.cellularNic.mac harqErrorRate_4th_Dl:mean -nan
scalar MultiCell.eNodeB2.cellularNic.mac harqErrorRate_3rd_Ul:mean -nan
scalar MultiCell.eNodeB2.cellularNic.mac harqErrorRate_3rd_Dl:mean -nan
scalar MultiCell.eNodeB2.cellularNic.mac harqErrorRate_2nd_Ul:mean -nan
scalar MultiCell.eNodeB2.cellularNic.mac harqErrorRate_2nd_Dl:mean -nan
scalar MultiCell.eNodeB2.cellularNic.mac harqErrorRate_1st_Ul:mean -nan
scalar MultiCell.eNodeB2.cellularNic.mac harqErrorRate_1st_Dl:mean -nan
scalar MultiCell.eNodeB2.cellularNic.mac harqErrorRateUl:mean -nan
scalar MultiCell.eNodeB2.cellularNic.mac harqErrorRateDl:mean -nan
scalar MultiCell.eNodeB2.cellularNic.mac macCellPacketLossUl:mean -nan
scalar MultiCell.eNodeB2.cellularNic.mac macCellPacketLossDl:mean 0.0076804915514592934
scalar MultiCell.eNodeB2.cellularNic.mac macPacketLossUl:mean -nan
scalar MultiCell.eNodeB2.cellularNic.mac macPacketLossDl:mean -nan
scalar MultiCell.eNodeB2.cellularNic.mac macThroughputUl:simu5g_rateavg -nan
scalar MultiCell.eNodeB2.cellularNic.mac macThroughputDl:simu5g_rateavg -nan
scalar MultiCell.eNodeB2.cellularNic.mac macDelayUl:mean -nan
scalar MultiCell.eNodeB2.cellularNic.mac macDelayDl:mean -nan
scalar MultiCell.eNodeB2.cellularNic.mac macCellThroughputUl:simu5g_rateavg -nan
scalar MultiCell.eNodeB2.cellularNic.mac macCellThroughputDl:simu5g_rateavg 10197.297584718799
scalar MultiCell.eNodeB2.cellularNic.mac sentPacketToLowerLayer:count 1641
scalar MultiCell.eNodeB2.cellularNic.mac sentPacketToLowerLayer:sum(packetBytes) 119793
scalar MultiCell.eNodeB2.cellularNic.mac sentPacketToUpperLayer:count 1303
scalar MultiCell.eNodeB2.cellularNic.mac sentPacketToUpperLayer:sum(packetBytes) 1303
scalar MultiCell.eNodeB2.cellularNic.mac receivedPacketFromLowerLayer:count 8308
scalar MultiCell.eNodeB2.cellularNic.mac receivedPacketFromLowerLayer:sum(packetBytes) 8308
scalar MultiCell.eNodeB2.cellularNic.mac receivedPacketFromUpperLayer:count 2606
scalar MultiCell.eNodeB2.cellularNic.mac receivedPacketFromUpperLayer:sum(packetBytes) 182420
scalar MultiCell.eNodeB2.cellularNic.mac macBufferOverFlowD2D:mean -nan
scalar MultiCell.eNodeB2.cellularNic.mac macBufferOverFlowUl:mean -nan
scalar MultiCell.eNodeB2.cellularNic.mac macBufferOverFlowDl:mean -nan
scalar MultiCell.eNodeB2.cellularNic.channelModel[0] measuredSinrUl:mean -nan
scalar MultiCell.eNodeB2.cellularNic.channelModel[0] measuredSinrDl:mean -nan
scalar MultiCell.eNodeB2.cellularNic.channelModel[0] rcvdSinrD2D:mean -nan
scalar MultiCell.eNodeB2.cellularNic.channelModel[0] rcvdSinrUl:mean -nan
scalar MultiCell.eNodeB2.cellularNic.channelModel[0] rcvdSinrDl:mean -nan
scalar MultiCell.eNodeB2.cellularNic packetDropInterfaceDown:count 0
scalar MultiCell.eNodeB2.cellularNic packetDropInterfaceDown:sum(packetBytes) 0
scalar MultiCell.eNodeB2.cellularNic packetDropNoCarrier:count 0
scalar MultiCell.eNodeB2.cellularNic packetDropNoCarrier:sum(packetBytes) 0
scalar MultiCell.eNodeB2.pppIf.queue queueLength:last 0
scalar MultiCell.eNodeB2.pppIf.queue queueLength:max 0
scalar MultiCell.eNodeB2.pppIf.queue queueLength:timeavg 0
scalar MultiCell.eNodeB2.pppIf.queue queueBitLength:last 0
scalar MultiCell.eNodeB2.pppIf.queue queueBitLength:max 0
scalar MultiCell.eNodeB2.pppIf.queue queueBitLength:timeavg 0
scalar MultiCell.eNodeB2.pppIf.queue outgoingPackets:count 0
scalar MultiCell.eNodeB2.pppIf.queue outgoingPacketLengths:sum 0
scalar MultiCell.eNodeB2.pppIf.queue incomingPackets:count 0
scalar MultiCell.eNodeB2.pppIf.queue incomingPacketLengths:sum 0
scalar MultiCell.eNodeB2.pppIf.queue droppedPacketsQueueOverflow:count 0
scalar MultiCell.eNodeB2.pppIf.queue droppedPacketLengthsQueueOverflow:sum 0
scalar MultiCell.eNodeB2.pppIf.ppp transmissionState:timeavg 0
scalar MultiCell.eNodeB2.pppIf.ppp rxPkOk:count 1303
scalar MultiCell.eNodeB2.pppIf.ppp rxPkOk:sum(packetBytes) 144633
scalar MultiCell.eNodeB2.pppIf.ppp txPk:count 0
scalar MultiCell.eNodeB2.pppIf.ppp txPk:sum(packetBytes) 0
scalar MultiCell.eNodeB2.pppIf.ppp rcvdPkFromHl:count 0
scalar MultiCell.eNodeB2.pppIf.ppp rcvdPkFromHl:sum(packetBytes) 0
scalar MultiCell.eNodeB2.pppIf.ppp passedUpPk:count 1303
scalar MultiCell.eNodeB2.pppIf.ppp passedUpPk:sum(packetBytes) 135512
scalar MultiCell.eNodeB2.pppIf.ppp packetDropIncorrectlyReceived:count 0
scalar MultiCell.eNodeB2.pppIf.ppp packetDropIncorrectlyReceived:sum(packetBytes) 0
scalar MultiCell.eNodeB2.pppIf.ppp packetDropInterfaceDown:count 0
scalar MultiCell.eNodeB2.pppIf.ppp packetDropInterfaceDown:sum(packetBytes) 0
scalar MultiCell.eNodeB2.pppIf packetDropInterfaceDown:count 0
scalar MultiCell.eNodeB2.pppIf packetDropInterfaceDown:sum(packetBytes) 0
scalar MultiCell.eNodeB2.pppIf packetDropNoCarrier:count 0
scalar MultiCell.eNodeB2.pppIf packetDropNoCarrier:sum(packetBytes) 0
scalar MultiCell.eNodeB2.x2ppp[0].queue queueLength:last 0
scalar MultiCell.eNodeB2.x2ppp[0].queue queueLength:max 0
scalar MultiCell.eNodeB2.x2ppp[0].queue queueLength:timeavg 0
scalar MultiCell.eNodeB2.x2ppp[0].queue queueBitLength:last 0
scalar MultiCell.eNodeB2.x2ppp[0].queue queueBitLength:max 0
scalar MultiCell.eNodeB2.x2ppp[0].queue queueBitLength:timeavg 0
scalar MultiCell.eNodeB2.x2ppp[0].queue outgoingPackets:count 0
scalar MultiCell.eNodeB2.x2ppp[0].queue outgoingPacketLengths:sum 0
scalar MultiCell.eNodeB2.x2ppp[0].queue incomingPackets:count 0
scalar MultiCell.eNodeB2.x2ppp[0].queue incomingPacketLengths:sum 0
scalar MultiCell.eNodeB2.x2ppp[0].queue droppedPacketsQueueOverflow:count 0
scalar MultiCell.eNodeB2.x2ppp[0].queue droppedPacketLengthsQueueOverflow:sum 0
scalar MultiCell.eNodeB2.x2ppp[0].ppp transmissionState:timeavg 0
scalar MultiCell.eNodeB2.x2ppp[0].ppp rxPkOk:count 0
scalar MultiCell.eNodeB2.x2ppp[0].ppp rxPkOk:sum(packetBytes) 0
scalar MultiCell.eNodeB2.x2ppp[0].ppp txPk:count 0
scalar MultiCell.eNodeB2.x2ppp[0].ppp txPk:sum(packetBytes) 0
scalar MultiCell.eNodeB2.x2ppp[0].ppp rcvdPkFromHl:count 0
scalar MultiCell.eNodeB2.x2ppp[0].ppp rcvdPkFromHl:sum(packetBytes) 0
scalar MultiCell.eNodeB2.x2ppp[0].ppp passedUpPk:count 0
scalar MultiCell.eNodeB2.x2ppp[0].ppp passedUpPk:sum(packetBytes) 0
scalar MultiCell.eNodeB2.x2ppp[0].ppp packetDropIncorrectlyReceived:count 0
scalar MultiCell.eNodeB2.x2ppp[0].ppp packetDropIncorrectlyReceived:sum(packetBytes) 0
scalar MultiCell.eNodeB2.x2ppp[0].ppp packetDropInterfaceDown:count 0
scalar MultiCell.eNodeB2.x2ppp[0].ppp packetDropInterfaceDown:sum(packetBytes) 0
scalar MultiCell.eNodeB2.x2ppp[0] packetDropInterfaceDown:count 0
scalar MultiCell.eNodeB2.x2ppp[0] packetDropInterfaceDown:sum(packetBytes) 0
scalar MultiCell.eNodeB2.x2ppp[0] packetDropNoCarrier:count 0
scalar MultiCell.eNodeB2.x2ppp[0] packetDropNoCarrier:sum(packetBytes) 0
scalar MultiCell.eNodeB2.pppMEHostIf.queue queueLength:last 0
scalar MultiCell.eNodeB2.pppMEHostIf.queue queueLength:max 0
scalar MultiCell.eNodeB2.pppMEHostIf.queue queueLength:timeavg 0
scalar MultiCell.eNodeB2.pppMEHostIf.queue queueBitLength:last 0
scalar MultiCell.eNodeB2.pppMEHostIf.queue queueBitLength:max 0
scalar MultiCell.eNodeB2.pppMEHostIf.queue queueBitLength:timeavg 0
scalar MultiCell.eNodeB2.pppMEHostIf.queue outgoingPackets:count 0
scalar MultiCell.eNodeB2.pppMEHostIf.queue outgoingPacketLengths:sum 0
scalar MultiCell.eNodeB2.pppMEHostIf.queue incomingPackets:count 0
scalar MultiCell.eNodeB2.pppMEHostIf.queue incomingPacketLengths:sum 0
scalar MultiCell.eNodeB2.pppMEHostIf.queue droppedPacketsQueueOverflow:count 0
scalar MultiCell.eNodeB2.pppMEHostIf.queue droppedPacketLengthsQueueOverflow:sum 0
scalar MultiCell.eNodeB2.pppMEHostIf.ppp transmissionState:timeavg 0
scalar MultiCell.eNodeB2.pppMEHostIf.ppp rxPkOk:count 0
scalar MultiCell.eNodeB2.pppMEHostIf.ppp rxPkOk:sum(packetBytes) 0
scalar MultiCell.eNodeB2.pppMEHostIf.ppp txPk:count 0
scalar MultiCell.eNodeB2.pppMEHostIf.ppp txPk:sum(packetBytes) 0
scalar MultiCell.eNodeB2.pppMEHostIf.ppp rcvdPkFromHl:count 0
scalar MultiCell.eNodeB2.pppMEHostIf.ppp rcvdPkFromHl:sum(packetBytes) 0
scalar MultiCell.eNodeB2.pppMEHostIf.ppp passedUpPk:count 0
scalar MultiCell.eNodeB2.pppMEHostIf.ppp passedUpPk:sum(packetBytes) 0
scalar MultiCell.eNodeB2.pppMEHostIf.ppp packetDropIncorrectlyReceived:count 0
scalar MultiCell.eNodeB2.pppMEHostIf.ppp packetDropIncorrectlyReceived:sum(packetBytes) 0
scalar MultiCell.eNodeB2.pppMEHostIf.ppp packetDropInterfaceDown:count 0
scalar MultiCell.eNodeB2.pppMEHostIf.ppp packetDropInterfaceDown:sum(packetBytes) 0
scalar MultiCell.eNodeB2.pppMEHostIf packetDropInterfaceDown:count 0
scalar MultiCell.eNodeB2.pppMEHostIf packetDropInterfaceDown:sum(packetBytes) 0
scalar MultiCell.eNodeB2.pppMEHostIf packetDropNoCarrier:count 0
scalar MultiCell.eNodeB2.pppMEHostIf packetDropNoCarrier:sum(packetBytes) 0
scalar MultiCell.eNodeB2.ipv4.ip packetDropAddressResolutionFailed:count 0
scalar MultiCell.eNodeB2.ipv4.ip packetDropAddressResolutionFailed:sum(packetBytes) 0
scalar MultiCell.eNodeB2.ipv4.ip packetDropHopLimitReached:count 0
scalar MultiCell.eNodeB2.ipv4.ip packetDropHopLimitReached:sum(packetBytes) 0
scalar MultiCell.eNodeB2.ipv4.ip packetDropForwardingDisabled:count 0
scalar MultiCell.eNodeB2.ipv4.ip packetDropForwardingDisabled:sum(packetBytes) 0
scalar MultiCell.eNodeB2.ipv4.ip packetDropNoInterfaceFound:count 0
scalar MultiCell.eNodeB2.ipv4.ip packetDropNoInterfaceFound:sum(packetBytes) 0
scalar MultiCell.eNodeB2.ipv4.ip packetDropNoRouteFound:count 0
scalar MultiCell.eNodeB2.ipv4.ip packetDropNoRouteFound:sum(packetBytes) 0
scalar MultiCell.eNodeB2.ipv4.ip packetDropUndefined:count 0
scalar MultiCell.eNodeB2.ipv4.ip packetDropUndefined:sum(packetBytes) 0
scalar MultiCell.eNodeB2.ipv4.arp arpResolutionFailed:count 0
scalar MultiCell.eNodeB2.ipv4.arp arpResolutionCompleted:count 0
scalar MultiCell.eNodeB2.ipv4.arp arpResolutionInitiated:count 0
scalar MultiCell.eNodeB2.ipv4.arp arpReplySent:count 0
scalar MultiCell.eNodeB2.ipv4.arp arpReplySent:sum(packetBytes) 0
scalar MultiCell.eNodeB2.ipv4.arp arpRequestSent:count 0
scalar MultiCell.eNodeB2.ipv4.arp arpRequestSent:sum(packetBytes) 0
scalar MultiCell.eNodeB2.udp packetReceived:count 1303
scalar MultiCell.eNodeB2.udp packetReceived:sum(packetBytes) 109452
scalar MultiCell.eNodeB2.udp packetSent:count 0
scalar MultiCell.eNodeB2.udp packetSent:sum(packetBytes) 0
scalar MultiCell.eNodeB2.udp passedUpPk:count 1303
scalar MultiCell.eNodeB2.udp droppedPkWrongPort:count 0
scalar MultiCell.eNodeB2.udp droppedPkBadChecksum:count 0
scalar MultiCell.ue11.lo[0].lo rcvdPkFromHl:count 0
scalar MultiCell.ue11.lo[0].lo rcvdPkFromHl:sum(packetBytes) 0
scalar MultiCell.ue11.lo[0].lo passedUpPk:count 0
scalar MultiCell.ue11.lo[0].lo passedUpPk:sum(packetBytes) 0
scalar MultiCell.ue11.lo[0] packetDropInterfaceDown:count 0
scalar MultiCell.ue11.lo[0] packetDropInterfaceDown:sum(packetBytes) 0
scalar MultiCell.ue11.lo[0] packetDropNoCarrier:count 0
scalar MultiCell.ue11.lo[0] packetDropNoCarrier:sum(packetBytes) 0
scalar MultiCell.ue11.cellularNic.rlcMux rlcCellThroughputD2D:simu5g_rateavg -nan
scalar MultiCell.ue11.cellularNic.rlcMux rlcPduThroughputD2D:simu5g_rateavg -nan
scalar MultiCell.ue11.cellularNic.rlcMux rlcPduDelayD2D:mean -nan
scalar MultiCell.ue11.cellularNic.rlcMux rlcThroughputD2D:simu5g_rateavg -nan
scalar MultiCell.ue11.cellularNic.rlcMux rlcDelayD2D:mean -nan
scalar MultiCell.ue11.cellularNic.rlcMux rlcCellThroughputUl:simu5g_rateavg -nan
scalar MultiCell.ue11.cellularNic.rlcMux rlcCellThroughputDl:simu5g_rateavg -nan
scalar MultiCell.ue11.cellularNic.rlcMux rlcPduThroughputUl:simu5g_rateavg -nan
scalar MultiCell.ue11.cellularNic.rlcMux rlcPduThroughputDl:simu5g_rateavg 0
scalar MultiCell.ue11.cellularNic.rlcMux rlcPduDelayUl:mean -nan
scalar MultiCell.ue11.cellularNic.rlcMux rlcPduDelayDl:mean 0.0040797342192691044
scalar MultiCell.ue11.cellularNic.rlcMux rlcThroughputUl:simu5g_rateavg -nan
scalar MultiCell.ue11.cellularNic.rlcMux rlcThroughputDl:simu5g_rateavg 3155.3213336576609
scalar MultiCell.ue11.cellularNic.rlcMux rlcDelayUl:mean -nan
scalar MultiCell.ue11.cellularNic.rlcMux rlcDelayDl:mean 0.0045388737766046535
scalar MultiCell.ue11.cellularNic.rlcMux sentPacketToLowerLayer:count 0
scalar MultiCell.ue11.cellularNic.rlcMux sentPacketToLowerLayer:sum(packetBytes) 0
scalar MultiCell.ue11.cellularNic.rlcMux receivedPacketFromLowerLayer:count 903
scalar MultiCell.ue11.cellularNic.rlcMux receivedPacketFromLowerLayer:sum(packetBytes) 64113
scalar MultiCell.ue11.cellularNic.mac harqTxAttemptsUl:mean -nan
scalar MultiCell.ue11.cellularNic.mac harqTxAttemptsDl:mean 1.0132890365448506
scalar MultiCell.ue11.cellularNic.mac harqErrorRate_4th_Ul:mean -nan
scalar MultiCell.ue11.cellularNic.mac harqErrorRate_4th_Dl:mean -nan
scalar MultiCell.ue11.cellularNic.mac harqErrorRate_3rd_Ul:mean -nan
scalar MultiCell.ue11.cellularNic.mac harqErrorRate_3rd_Dl:mean -nan
scalar MultiCell.ue11.cellularNic.mac harqErrorRate_2nd_Ul:mean -nan
scalar MultiCell.ue11.cellularNic.mac harqErrorRate_2nd_Dl:mean 0
scalar MultiCell.ue11.cellularNic.mac harqErrorRate_1st_Ul:mean -nan
scalar MultiCell.ue11.cellularNic.mac harqErrorRate_1st_Dl:mean 0.013289036544850499
scalar MultiCell.ue11.cellularNic.mac harqErrorRateUl:mean -nan
scalar MultiCell.ue11.cellularNic.mac harqErrorRateDl:mean 0.013114754098360656
scalar MultiCell.ue11.cellularNic.mac macCellPacketLossUl:mean -nan
scalar MultiCell.ue11.cellularNic.mac macCellPacketLossDl:mean -nan
scalar MultiCell.ue11.cellularNic.mac macPacketLossUl:mean -nan
scalar MultiCell.ue11.cellularNic.mac macPacketLossDl:mean 0
scalar MultiCell.ue11.cellularNic.mac macThroughputUl:simu5g_rateavg -nan
scalar MultiCell.ue11.cellularNic.mac macThroughputDl:simu5g_rateavg 3338.2385124204211
scalar MultiCell.ue11.cellularNic.mac macDelayUl:mean -nan
scalar MultiCell.ue11.cellularNic.mac macDelayDl:mean 0.0040797342192691044
scalar MultiCell.ue11.cellularNic.mac macCellThroughputUl:simu5g_rateavg -nan
scalar MultiCell.ue11.cellularNic.mac macCellThroughputDl:simu5g_rateavg -nan
scalar MultiCell.ue11.cellularNic.mac sentPacketToLowerLayer:count 915
scalar MultiCell.ue11.cellularNic.mac sentPacketToLowerLayer:sum(packetBytes) 915
scalar MultiCell.ue11.cellularNic.mac sentPacketToUpperLayer:count 903
scalar MultiCell.ue11.cellularNic.mac sentPacketToUpperLayer:sum(packetBytes) 64113
scalar MultiCell.ue11.cellularNic.mac receivedPacketFromLowerLayer:count 915
scalar MultiCell.ue11.cellularNic.mac receivedPacketFromLowerLayer:sum(packetBytes) 66795
scalar MultiCell.ue11.cellularNic.mac receivedPacketFromUpperLayer:count 0
scalar MultiCell.ue11.cellularNic.mac receivedPacketFromUpperLayer:sum(packetBytes) 0
scalar MultiCell.ue11.cellularNic.mac macBufferOverFlowD2D:mean -nan
scalar MultiCell.ue11.cellularNic.mac macBufferOverFlowUl:mean -nan
scalar MultiCell.ue11.cellularNic.mac macBufferOverFlowDl:mean -nan
scalar MultiCell.ue11.cellularNic.phy distance:mean -nan
scalar MultiCell.ue11.cellularNic.phy averageCqiUl:mean -nan
scalar MultiCell.ue11.cellularNic.phy averageCqiUl:count 0
scalar MultiCell.ue11.cellularNic.phy averageCqiDl:mean 13.895081967213114
scalar MultiCell.ue11.cellularNic.phy averageCqiDl:count 915
scalar MultiCell.ue11.cellularNic.channelModel[0] measuredSinrUl:mean 22.406128386037057
scalar MultiCell.ue11.cellularNic.channelModel[0] measuredSinrDl:mean 33.942594502438972
scalar MultiCell.ue11.cellularNic.channelModel[0] rcvdSinrD2D:mean -nan
scalar MultiCell.ue11.cellularNic.channelModel[0] rcvdSinrUl:mean -nan
scalar MultiCell.ue11.cellularNic.channelModel[0] rcvdSinrDl:mean 32.44632968568348
scalar MultiCell.ue11.cellularNic packetDropInterfaceDown:count 0
scalar MultiCell.ue11.cellularNic packetDropInterfaceDown:sum(packetBytes) 0
scalar MultiCell.ue11.cellularNic packetDropNoCarrier:count 0
scalar MultiCell.ue11.cellularNic packetDropNoCarrier:sum(packetBytes) 0
scalar MultiCell.ue11.encap pauseSent:count 0
scalar MultiCell.ue11.encap pauseSent:sum 0
scalar MultiCell.ue11.encap decapPk:count 0
scalar MultiCell.ue11.encap decapPk:sum(packetBytes) 0
scalar MultiCell.ue11.encap encapPk:count 0
scalar MultiCell.ue11.encap encapPk:sum(packetBytes) 0
scalar MultiCell.ue11.ipv4.ip packetDropAddressResolutionFailed:count 0
scalar MultiCell.ue11.ipv4.ip packetDropAddressResolutionFailed:sum(packetBytes) 0
scalar MultiCell.ue11.ipv4.ip packetDropHopLimitReached:count 0
scalar MultiCell.ue11.ipv4.ip packetDropHopLimitReached:sum(packetBytes) 0
scalar MultiCell.ue11.ipv4.ip packetDropForwardingDisabled:count 0
scalar MultiCell.ue11.ipv4.ip packetDropForwardingDisabled:sum(packetBytes) 0
scalar MultiCell.ue11.ipv4.ip packetDropNoInterfaceFound:count 0
scalar MultiCell.ue11.ipv4.ip packetDropNoInterfaceFound:sum(packetBytes) 0
scalar MultiCell.ue11.ipv4.ip packetDropNoRouteFound:count 0
scalar MultiCell.ue11.ipv4.ip packetDropNoRouteFound:sum(packetBytes) 0
scalar MultiCell.ue11.ipv4.ip packetDropUndefined:count 0
scalar MultiCell.ue11.ipv4.ip packetDropUndefined:sum(packetBytes) 0
scalar MultiCell.ue11.ipv4.arp arpResolutionFailed:count 0
scalar MultiCell.ue11.ipv4.arp arpResolutionCompleted:count 0
scalar MultiCell.ue11.ipv4.arp arpResolutionInitiated:count 0
scalar MultiCell.ue11.ipv4.arp arpReplySent:count 0
scalar MultiCell.ue11.ipv4.arp arpReplySent:sum(packetBytes) 0
scalar MultiCell.ue11.ipv4.arp arpRequestSent:count 0
scalar MultiCell.ue11.ipv4.arp arpRequestSent:sum(packetBytes) 0
scalar MultiCell.ue11.udp packetReceived:count 903
scalar MultiCell.ue11.udp packetReceived:sum(packetBytes) 43344
scalar MultiCell.ue11.udp packetSent:count 0
scalar MultiCell.ue11.udp packetSent:sum(packetBytes) 0
scalar MultiCell.ue11.udp passedUpPk:count 903
scalar MultiCell.ue11.udp droppedPkWrongPort:count 0
scalar MultiCell.ue11.udp droppedPkBadChecksum:count 0
scalar MultiCell.ue11.app[0] voipReceivedThroughput:simu5g_rateavg 1829.1717876276298
scalar MultiCell.ue11.app[0] voipPlayoutLoss:mean 0.0079207920792079209
scalar MultiCell.ue11.app[0] voipJitter:mean 0.0059999999999999993
scalar MultiCell.ue11.app[0] voipTaildropLoss:mean 0
scalar MultiCell.ue11.app[0] voipMos:mean 4.2255654478888962
scalar MultiCell.ue11.app[0] voipFrameDelay:mean 0.0045392325766046172
scalar MultiCell.ue11.app[0] voipFrameLoss:mean 0
scalar MultiCell.ue11.app[0] voipPlayoutDelay:mean 0.002
scalar MultiCell.ue12.lo[0].lo rcvdPkFromHl:count 0
scalar MultiCell.ue12.lo[0].lo rcvdPkFromHl:sum(packetBytes) 0
scalar MultiCell.ue12.lo[0].lo passedUpPk:count 0
scalar MultiCell.ue12.lo[0].lo passedUpPk:sum(packetBytes) 0
scalar MultiCell.ue12.lo[0] packetDropInterfaceDown:count 0
scalar MultiCell.ue12.lo[0] packetDropInterfaceDown:sum(packetBytes) 0
scalar MultiCell.ue12.lo[0] packetDropNoCarrier:count 0
scalar MultiCell.ue12.lo[0] packetDropNoCarrier:sum(packetBytes) 0
scalar MultiCell.ue12.cellularNic.rlcMux rlcCellThroughputD2D:simu5g_rateavg -nan
scalar MultiCell.ue12.cellularNic.rlcMux rlcPduThroughputD2D:simu5g_rateavg -nan
scalar MultiCell.ue12.cellularNic.rlcMux rlcPduDelayD2D:mean -nan
scalar MultiCell.ue12.cellularNic.rlcMux rlcThroughputD2D:simu5g_rateavg -nan
scalar MultiCell.ue12.cellularNic.rlcMux rlcDelayD2D:mean -nan
scalar MultiCell.ue12.cellularNic.rlcMux rlcCellThroughputUl:simu5g_rateavg -nan
scalar MultiCell.ue12.cellularNic.rlcMux rlcCellThroughputDl:simu5g_rateavg -nan
scalar MultiCell.ue12.cellularNic.rlcMux rlcPduThroughputUl:simu5g_rateavg -nan
scalar MultiCell.ue12.cellularNic.rlcMux rlcPduThroughputDl:simu5g_rateavg 0
scalar MultiCell.ue12.cellularNic.rlcMux rlcPduDelayUl:mean -nan
scalar MultiCell.ue12.cellularNic.rlcMux rlcPduDelayDl:mean 0.0069350180505414671
scalar MultiCell.ue12.cellularNic.rlcMux rlcThroughputUl:simu5g_rateavg -nan
scalar MultiCell.ue12.cellularNic.rlcMux rlcThroughputDl:simu5g_rateavg 1987.487729619151
scalar MultiCell.ue12.cellularNic.rlcMux rlcDelayUl:mean -nan
scalar MultiCell.ue12.cellularNic.rlcMux rlcDelayDl:mean 0.0072148504954946064
scalar MultiCell.ue12.cellularNic.rlcMux sentPacketToLowerLayer:count 0
scalar MultiCell.ue12.cellularNic.rlcMux sentPacketToLowerLayer:sum(packetBytes) 0
scalar MultiCell.ue12.cellularNic.rlcMux receivedPacketFromLowerLayer:count 554
scalar MultiCell.ue12.cellularNic.rlcMux receivedPacketFromLowerLayer:sum(packetBytes) 39334
scalar MultiCell.ue12.cellularNic.mac harqTxAttemptsUl:mean -nan
scalar MultiCell.ue12.cellularNic.mac harqTxAttemptsDl:mean 1.4891696750902528
scalar MultiCell.ue12.cellularNic.mac harqErrorRate_4th_Ul:mean -nan
scalar MultiCell.ue12.cellularNic.mac harqErrorRate_4th_Dl:mean -nan
scalar MultiCell.ue12.cellularNic.mac harqErrorRate_3rd_Ul:mean -nan
scalar MultiCell.ue12.cellularNic.mac harqErrorRate_3rd_Dl:mean 0
scalar MultiCell.ue12.cellularNic.mac harqErrorRate_2nd_Ul:mean -nan
scalar MultiCell.ue12.cellularNic.mac harqErrorRate_2nd_Dl:mean 0.19383259911894274
scalar MultiCell.ue12.cellularNic.mac harqErrorRate_1st_Ul:mean -nan
scalar MultiCell.ue12.cellularNic.mac harqErrorRate_1st_Dl:mean 0.40974729241877256
scalar MultiCell.ue12.cellularNic.mac harqErrorRateUl:mean -nan
scalar MultiCell.ue12.cellularNic.mac harqErrorRateDl:mean 0.32848484848484849
scalar MultiCell.ue12.cellularNic.mac macCellPacketLossUl:mean -nan
scalar MultiCell.ue12.cellularNic.mac macCellPacketLossDl:mean -nan
scalar MultiCell.ue12.cellularNic.mac macPacketLossUl:mean -nan
scalar MultiCell.ue12.cellularNic.mac macPacketLossDl:mean 0
scalar MultiCell.ue12.cellularNic.mac macThroughputUl:simu5g_rateavg -nan
scalar MultiCell.ue12.cellularNic.mac macThroughputDl:simu5g_rateavg 2102.7044095970728
scalar MultiCell.ue12.cellularNic.mac macDelayUl:mean -nan
scalar MultiCell.ue12.cellularNic.mac macDelayDl:mean 0.0069350180505414671
scalar MultiCell.ue12.cellularNic.mac macCellThroughputUl:simu5g_rateavg -nan
scalar MultiCell.ue12.cellularNic.mac macCellThroughputDl:simu5g_rateavg -nan
scalar MultiCell.ue12.cellularNic.mac sentPacketToLowerLayer:count 825
scalar MultiCell.ue12.cellularNic.mac sentPacketToLowerLayer:sum(packetBytes) 825
scalar MultiCell.ue12.cellularNic.mac sentPacketToUpperLayer:count 554
scalar MultiCell.ue12.cellularNic.mac sentPacketToUpperLayer:sum(packetBytes) 39334
scalar MultiCell.ue12.cellularNic.mac receivedPacketFromLowerLayer:count 825
scalar MultiCell.ue12.cellularNic.mac receivedPacketFromLowerLayer:sum(packetBytes) 60225
scalar MultiCell.ue12.cellularNic.mac receivedPacketFromUpperLayer:count 0
scalar MultiCell.ue12.cellularNic.mac receivedPacketFromUpperLayer:sum(packetBytes) 0
scalar MultiCell.ue12.cellularNic.mac macBufferOverFlowD2D:mean -nan
scalar MultiCell.ue12.cellularNic.mac macBufferOverFlowUl:mean -nan
scalar MultiCell.ue12.cellularNic.mac macBufferOverFlowDl:mean -nan
scalar MultiCell.ue12.cellularNic.phy distance:mean -nan
scalar MultiCell.ue12.cellularNic.phy averageCqiUl:mean -nan
scalar MultiCell.ue12.cellularNic.phy averageCqiUl:count 0
scalar MultiCell.ue12.cellularNic.phy averageCqiDl:mean 11.757575757575758
scalar MultiCell.ue12.cellularNic.phy averageCqiDl:count 825
scalar MultiCell.ue12.cellularNic.channelModel[0] measuredSinrUl:mean 36.151947532456425
scalar MultiCell.ue12.cellularNic.channelModel[0] measuredSinrDl:mean 29.163013127831846
scalar MultiCell.ue12.cellularNic.channelModel[0] rcvdSinrD2D:mean -nan
scalar MultiCell.ue12.cellularNic.channelModel[0] rcvdSinrUl:mean -nan
scalar MultiCell.ue12.cellularNic.channelModel[0] rcvdSinrDl:mean 23.230228190726379
scalar MultiCell.ue12.cellularNic packetDropInterfaceDown:count 0
scalar MultiCell.ue12.cellularNic packetDropInterfaceDown:sum(packetBytes) 0
scalar MultiCell.ue12.cellularNic packetDropNoCarrier:count 0
scalar MultiCell.ue12.cellularNic packetDropNoCarrier:sum(packetBytes) 0
scalar MultiCell.ue12.encap pauseSent:count 0
scalar MultiCell.ue12.encap pauseSent:sum 0
scalar MultiCell.ue12.encap decapPk:count 0
scalar MultiCell.ue12.encap decapPk:sum(packetBytes) 0
scalar MultiCell.ue12.encap encapPk:count 0
scalar MultiCell.ue12.encap encapPk:sum(packetBytes) 0
scalar MultiCell.ue12.ipv4.ip packetDropAddressResolutionFailed:count 0
scalar MultiCell.ue12.ipv4.ip packetDropAddressResolutionFailed:sum(packetBytes) 0
scalar MultiCell.ue12.ipv4.ip packetDropHopLimitReached:count 0
scalar MultiCell.ue12.ipv4.ip packetDropHopLimitReached:sum(packetBytes) 0
scalar MultiCell.ue12.ipv4.ip packetDropForwardingDisabled:count 0
scalar MultiCell.ue12.ipv4.ip packetDropForwardingDisabled:sum(packetBytes) 0
scalar MultiCell.ue12.ipv4.ip packetDropNoInterfaceFound:count 0
scalar MultiCell.ue12.ipv4.ip packetDropNoInterfaceFound:sum(packetBytes) 0
scalar MultiCell.ue12.ipv4.ip packetDropNoRouteFound:count 0
scalar MultiCell.ue12.ipv4.ip packetDropNoRouteFound:sum(packetBytes) 0
scalar MultiCell.ue12.ipv4.ip packetDropUndefined:count 0
scalar MultiCell.ue12.ipv4.ip packetDropUndefined:sum(packetBytes) 0
scalar MultiCell.ue12.ipv4.arp arpResolutionFailed:count 0
scalar MultiCell.ue12.ipv4.arp arpResolutionCompleted:count 0
scalar MultiCell.ue12.ipv4.arp arpResolutionInitiated:count 0
scalar MultiCell.ue12.ipv4.arp arpReplySent:count 0
scalar MultiCell.ue12.ipv4.arp arpReplySent:sum(packetBytes) 0
scalar MultiCell.ue12.ipv4.arp arpRequestSent:count 0
scalar MultiCell.ue12.ipv4.arp arpRequestSent:sum(packetBytes) 0
scalar MultiCell.ue12.udp packetReceived:count 554
scalar MultiCell.ue12.udp packetReceived:sum(packetBytes) 26592
scalar MultiCell.ue12.udp packetSent:count 0
scalar MultiCell.ue12.udp packetSent:sum(packetBytes) 0
scalar MultiCell.ue12.udp passedUpPk:count 554
scalar MultiCell.ue12.udp droppedPkWrongPort:count 0
scalar MultiCell.ue12.udp droppedPkBadChecksum:count 0
scalar MultiCell.ue12.app[0] voipReceivedThroughput:simu5g_rateavg 1152.1667997792174
scalar MultiCell.ue12.app[0] voipPlayoutLoss:mean 0.098268398268398269
scalar MultiCell.ue12.app[0] voipJitter:mean 0.0071629955947136621
scalar MultiCell.ue12.app[0] voipTaildropLoss:mean 0
scalar MultiCell.ue12.app[0] voipMos:mean 3.9379022022456094
scalar MultiCell.ue12.app[0] voipFrameDelay:mean 0.0072152092954945969
scalar MultiCell.ue12.app[0] voipFrameLoss:mean 0
scalar MultiCell.ue12.app[0] voipPlayoutDelay:mean 0.0017142857142857144
scalar MultiCell.ue21.lo[0].lo rcvdPkFromHl:count 0
scalar MultiCell.ue21.lo[0].lo rcvdPkFromHl:sum(packetBytes) 0
scalar MultiCell.ue21.lo[0].lo passedUpPk:count 0
scalar MultiCell.ue21.lo[0].lo passedUpPk:sum(packetBytes) 0
scalar MultiCell.ue21.lo[0] packetDropInterfaceDown:count 0
scalar MultiCell.ue21.lo[0] packetDropInterfaceDown:sum(packetBytes) 0
scalar MultiCell.ue21.lo[0] packetDropNoCarrier:count 0
scalar MultiCell.ue21.lo[0] packetDropNoCarrier:sum(packetBytes) 0
scalar MultiCell.ue21.cellularNic.rlcMux rlcCellThroughputD2D:simu5g_rateavg -nan
scalar MultiCell.ue21.cellularNic.rlcMux rlcPduThroughputD2D:simu5g_rateavg -nan
scalar MultiCell.ue21.cellularNic.rlcMux rlcPduDelayD2D:mean -nan
scalar MultiCell.ue21.cellularNic.rlcMux rlcThroughputD2D:simu5g_rateavg -nan
scalar MultiCell.ue21.cellularNic.rlcMux rlcDelayD2D:mean -nan
scalar MultiCell.ue21.cellularNic.rlcMux rlcCellThroughputUl:simu5g_rateavg -nan
scalar MultiCell.ue21.cellularNic.rlcMux rlcCellThroughputDl:simu5g_rateavg -nan
scalar MultiCell.ue21.cellularNic.rlcMux rlcPduThroughputUl:simu5g_rateavg -nan
scalar MultiCell.ue21.cellularNic.rlcMux rlcPduThroughputDl:simu5g_rateavg 0
scalar MultiCell.ue21.cellularNic.rlcMux rlcPduDelayUl:mean -nan
scalar MultiCell.ue21.cellularNic.rlcMux rlcPduDelayDl:mean 0.0061818181818181547
scalar MultiCell.ue21.cellularNic.rlcMux rlcThroughputUl:simu5g_rateavg -nan
scalar MultiCell.ue21.cellularNic.rlcMux rlcThroughputDl:simu5g_rateavg 1763.6443548462798
scalar MultiCell.ue21.cellularNic.rlcMux rlcDelayUl:mean -nan
scalar MultiCell.ue21.cellularNic.rlcMux rlcDelayDl:mean 0.0068335842818511025
scalar MultiCell.ue21.cellularNic.rlcMux sentPacketToLowerLayer:count 0
scalar MultiCell.ue21.cellularNic.rlcMux sentPacketToLowerLayer:sum(packetBytes) 0
scalar MultiCell.ue21.cellularNic.rlcMux receivedPacketFromLowerLayer:count 638
scalar MultiCell.ue21.cellularNic.rlcMux receivedPacketFromLowerLayer:sum(packetBytes) 45298
scalar MultiCell.ue21.cellularNic.mac harqTxAttemptsUl:mean -nan
scalar MultiCell.ue21.cellularNic.mac harqTxAttemptsDl:mean 1.3636363636363635
scalar MultiCell.ue21.cellularNic.mac harqErrorRate_4th_Ul:mean -nan
scalar MultiCell.ue21.cellularNic.mac harqErrorRate_4th_Dl:mean 0
scalar MultiCell.ue21.cellularNic.mac harqErrorRate_3rd_Ul:mean -nan
scalar MultiCell.ue21.cellularNic.mac harqErrorRate_3rd_Dl:mean 0.054054054054054057
scalar MultiCell.ue21.cellularNic.mac harqErrorRate_2nd_Ul:mean -nan
scalar MultiCell.ue21.cellularNic.mac harqErrorRate_2nd_Dl:mean 0.19170984455958548
scalar MultiCell.ue21.cellularNic.mac harqErrorRate_1st_Ul:mean -nan
scalar MultiCell.ue21.cellularNic.mac harqErrorRate_1st_Dl:mean 0.30250783699059564
scalar MultiCell.ue21.cellularNic.mac harqErrorRateUl:mean -nan
scalar MultiCell.ue21.cellularNic.mac harqErrorRateDl:mean 0.26666666666666666
scalar MultiCell.ue21.cellularNic.mac macCellPacketLossUl:mean -nan
scalar MultiCell.ue21.cellularNic.mac macCellPacketLossDl:mean -nan
scalar MultiCell.ue21.cellularNic.mac macPacketLossUl:mean -nan
scalar MultiCell.ue21.cellularNic.mac macPacketLossDl:mean 0
scalar MultiCell.ue21.cellularNic.mac macThroughputUl:simu5g_rateavg -nan
scalar MultiCell.ue21.cellularNic.mac macThroughputDl:simu5g_rateavg 1865.8846073011384
scalar MultiCell.ue21.cellularNic.mac macDelayUl:mean -nan
scalar MultiCell.ue21.cellularNic.mac macDelayDl:mean 0.0061818181818181547
scalar MultiCell.ue21.cellularNic.mac macCellThroughputUl:simu5g_rateavg -nan
scalar MultiCell.ue21.cellularNic.mac macCellThroughputDl:simu5g_rateavg -nan
scalar MultiCell.ue21.cellularNic.mac sentPacketToLowerLayer:count 870
scalar MultiCell.ue21.cellularNic.mac sentPacketToLowerLayer:sum(packetBytes) 870
scalar MultiCell.ue21.cellularNic.mac sentPacketToUpperLayer:count 638
scalar MultiCell.ue21.cellularNic.mac sentPacketToUpperLayer:sum(packetBytes) 45298
scalar MultiCell.ue21.cellularNic.mac receivedPacketFromLowerLayer:count 870
scalar MultiCell.ue21.cellularNic.mac receivedPacketFromLowerLayer:sum(packetBytes) 63510
scalar MultiCell.ue21.cellularNic.mac receivedPacketFromUpperLayer:count 0
scalar MultiCell.ue21.cellularNic.mac receivedPacketFromUpperLayer:sum(packetBytes) 0
scalar MultiCell.ue21.cellularNic.mac macBufferOverFlowD2D:mean -nan
scalar MultiCell.ue21.cellularNic.mac macBufferOverFlowUl:mean -nan
scalar MultiCell.ue21.cellularNic.mac macBufferOverFlowDl:mean -nan
scalar MultiCell.ue21.cellularNic.phy distance:mean -nan
scalar MultiCell.ue21.cellularNic.phy averageCqiUl:mean -nan
scalar MultiCell.ue21.cellularNic.phy averageCqiUl:count 0
scalar MultiCell.ue21.cellularNic.phy averageCqiDl:mean 9.9275862068965512
scalar MultiCell.ue21.cellularNic.phy averageCqiDl:count 870
scalar MultiCell.ue21.cellularNic.channelModel[0] measuredSinrUl:mean 1.1268525055324992
scalar MultiCell.ue21.cellularNic.channelModel[0] measuredSinrDl:mean 20.463785518919746
scalar MultiCell.ue21.cellularNic.channelModel[0] rcvdSinrD2D:mean -nan
scalar MultiCell.ue21.cellularNic.channelModel[0] rcvdSinrUl:mean -nan
scalar MultiCell.ue21.cellularNic.channelModel[0] rcvdSinrDl:mean 10.99431906845053
scalar MultiCell.ue21.cellularNic packetDropInterfaceDown:count 0
scalar MultiCell.ue21.cellularNic packetDropInterfaceDown:sum(packetBytes) 0
scalar MultiCell.ue21.cellularNic packetDropNoCarrier:count 0
scalar MultiCell.ue21.cellularNic packetDropNoCarrier:sum(packetBytes) 0
scalar MultiCell.ue21.encap pauseSent:count 0
scalar MultiCell.ue21.encap pauseSent:sum 0
scalar MultiCell.ue21.encap decapPk:count 0
scalar MultiCell.ue21.encap decapPk:sum(packetBytes) 0
scalar MultiCell.ue21.encap encapPk:count 0
scalar MultiCell.ue21.encap encapPk:sum(packetBytes) 0
scalar MultiCell.ue21.ipv4.ip packetDropAddressResolutionFailed:count 0
scalar MultiCell.ue21.ipv4.ip packetDropAddressResolutionFailed:sum(packetBytes) 0
scalar MultiCell.ue21.ipv4.ip packetDropHopLimitReached:count 0
scalar MultiCell.ue21.ipv4.ip packetDropHopLimitReached:sum(packetBytes) 0
scalar MultiCell.ue21.ipv4.ip packetDropForwardingDisabled:count 0
scalar MultiCell.ue21.ipv4.ip packetDropForwardingDisabled:sum(packetBytes) 0
scalar MultiCell.ue21.ipv4.ip packetDropNoInterfaceFound:count 0
scalar MultiCell.ue21.ipv4.ip packetDropNoInterfaceFound:sum(packetBytes) 0
scalar MultiCell.ue21.ipv4.ip packetDropNoRouteFound:count 0
scalar MultiCell.ue21.ipv4.ip packetDropNoRouteFound:sum(packetBytes) 0
scalar MultiCell.ue21.ipv4.ip packetDropUndefined:count 0
scalar MultiCell.ue21.ipv4.ip packetDropUndefined:sum(packetBytes) 0
scalar MultiCell.ue21.ipv4.arp arpResolutionFailed:count 0
scalar MultiCell.ue21.ipv4.arp arpResolutionCompleted:count 0
scalar MultiCell.ue21.ipv4.arp arpResolutionInitiated:count 0
scalar MultiCell.ue21.ipv4.arp arpReplySent:count 0
scalar MultiCell.ue21.ipv4.arp arpReplySent:sum(packetBytes) 0
scalar MultiCell.ue21.ipv4.arp arpRequestSent:count 0
scalar MultiCell.ue21.ipv4.arp arpRequestSent:sum(packetBytes) 0
scalar MultiCell.ue21.udp packetReceived:count 638
scalar MultiCell.ue21.udp packetReceived:sum(packetBytes) 30624
scalar MultiCell.ue21.udp packetSent:count 0
scalar MultiCell.ue21.udp packetSent:sum(packetBytes) 0
scalar MultiCell.ue21.udp passedUpPk:count 638
scalar MultiCell.ue21.udp droppedPkWrongPort:count 0
scalar MultiCell.ue21.udp droppedPkBadChecksum:count 0
scalar MultiCell.ue21.app[0] voipReceivedThroughput:simu5g_rateavg 1022.4025245485686
scalar MultiCell.ue21.app[0] voipPlayoutLoss:mean 0.018499999999999999
scalar MultiCell.ue21.app[0] voipJitter:mean 0.0063243243243243288
scalar MultiCell.ue21.app[0] voipTaildropLoss:mean 0
scalar MultiCell.ue21.app[0] voipMos:mean 4.0419377808542913
scalar MultiCell.ue21.app[0] voipFrameDelay:mean 0.0068339430818511225
scalar MultiCell.ue21.app[0] voipFrameLoss:mean 0
scalar MultiCell.ue21.app[0] voipPlayoutDelay:mean 0
scalar MultiCell.ue22.lo[0].lo rcvdPkFromHl:count 0
scalar MultiCell.ue22.lo[0].lo rcvdPkFromHl:sum(packetBytes) 0
scalar MultiCell.ue22.lo[0].lo passedUpPk:count 0
scalar MultiCell.ue22.lo[0].lo passedUpPk:sum(packetBytes) 0
scalar MultiCell.ue22.lo[0] packetDropInterfaceDown:count 0
scalar MultiCell.ue22.lo[0] packetDropInterfaceDown:sum(packetBytes) 0
scalar MultiCell.ue22.lo[0] packetDropNoCarrier:count 0
scalar MultiCell.ue22.lo[0] packetDropNoCarrier:sum(packetBytes) 0
scalar MultiCell.ue22.cellularNic.rlcMux rlcCellThroughputD2D:simu5g_rateavg -nan
scalar MultiCell.ue22.cellularNic.rlcMux rlcPduThroughputD2D:simu5g_rateavg -nan
scalar MultiCell.ue22.cellularNic.rlcMux rlcPduDelayD2D:mean -nan
scalar MultiCell.ue22.cellularNic.rlcMux rlcThroughputD2D:simu5g_rateavg -nan
scalar MultiCell.ue22.cellularNic.rlcMux rlcDelayD2D:mean -nan
scalar MultiCell.ue22.cellularNic.rlcMux rlcCellThroughputUl:simu5g_rateavg -nan
scalar MultiCell.ue22.cellularNic.rlcMux rlcCellThroughputDl:simu5g_rateavg -nan
scalar MultiCell.ue22.cellularNic.rlcMux rlcPduThroughputUl:simu5g_rateavg -nan
scalar MultiCell.ue22.cellularNic.rlcMux rlcPduThroughputDl:simu5g_rateavg 0
scalar MultiCell.ue22.cellularNic.rlcMux rlcPduDelayUl:mean -nan
scalar MultiCell.ue22.cellularNic.rlcMux rlcPduDelayDl:mean 0.0046972477064220171
scalar MultiCell.ue22.cellularNic.rlcMux rlcThroughputUl:simu5g_rateavg -nan
scalar MultiCell.ue22.cellularNic.rlcMux rlcThroughputDl:simu5g_rateavg 2430.9876696748115
scalar MultiCell.ue22.cellularNic.rlcMux rlcDelayUl:mean -nan
scalar MultiCell.ue22.cellularNic.rlcMux rlcDelayDl:mean 0.030505746869158763
scalar MultiCell.ue22.cellularNic.rlcMux sentPacketToLowerLayer:count 0
scalar MultiCell.ue22.cellularNic.rlcMux sentPacketToLowerLayer:sum(packetBytes) 0
scalar MultiCell.ue22.cellularNic.rlcMux receivedPacketFromLowerLayer:count 654
scalar MultiCell.ue22.cellularNic.rlcMux receivedPacketFromLowerLayer:sum(packetBytes) 46434
scalar MultiCell.ue22.cellularNic.mac harqTxAttemptsUl:mean -nan
scalar MultiCell.ue22.cellularNic.mac harqTxAttemptsDl:mean 1.1162079510703364
scalar MultiCell.ue22.cellularNic.mac harqErrorRate_4th_Ul:mean -nan
scalar MultiCell.ue22.cellularNic.mac harqErrorRate_4th_Dl:mean 1
scalar MultiCell.ue22.cellularNic.mac harqErrorRate_3rd_Ul:mean -nan
scalar MultiCell.ue22.cellularNic.mac harqErrorRate_3rd_Dl:mean 0.25
scalar MultiCell.ue22.cellularNic.mac harqErrorRate_2nd_Ul:mean -nan
scalar MultiCell.ue22.cellularNic.mac harqErrorRate_2nd_Dl:mean 0.7142857142857143
scalar MultiCell.ue22.cellularNic.mac harqErrorRate_1st_Ul:mean -nan
scalar MultiCell.ue22.cellularNic.mac harqErrorRate_1st_Dl:mean 0.084337349397590355
scalar MultiCell.ue22.cellularNic.mac harqErrorRateUl:mean -nan
scalar MultiCell.ue22.cellularNic.mac harqErrorRateDl:mean 0.15064935064935064
scalar MultiCell.ue22.cellularNic.mac macCellPacketLossUl:mean -nan
scalar MultiCell.ue22.cellularNic.mac macCellPacketLossDl:mean -nan
scalar MultiCell.ue22.cellularNic.mac macPacketLossUl:mean -nan
scalar MultiCell.ue22.cellularNic.mac macPacketLossDl:mean 0.015060240963855422
scalar MultiCell.ue22.cellularNic.mac macThroughputUl:simu5g_rateavg -nan
scalar MultiCell.ue22.cellularNic.mac macThroughputDl:simu5g_rateavg 2582.3848591157798
scalar MultiCell.ue22.cellularNic.mac macDelayUl:mean -nan
scalar MultiCell.ue22.cellularNic.mac macDelayDl:mean 0.0046972477064220171
scalar MultiCell.ue22.cellularNic.mac macCellThroughputUl:simu5g_rateavg -nan
scalar MultiCell.ue22.cellularNic.mac macCellThroughputDl:simu5g_rateavg -nan
scalar MultiCell.ue22.cellularNic.mac sentPacketToLowerLayer:count 770
scalar MultiCell.ue22.cellularNic.mac sentPacketToLowerLayer:sum(packetBytes) 770
scalar MultiCell.ue22.cellularNic.mac sentPacketToUpperLayer:count 654
scalar MultiCell.ue22.cellularNic.mac sentPacketToUpperLayer:sum(packetBytes) 46434
scalar MultiCell.ue22.cellularNic.mac receivedPacketFromLowerLayer:count 771
scalar MultiCell.ue22.cellularNic.mac receivedPacketFromLowerLayer:sum(packetBytes) 56283
scalar MultiCell.ue22.cellularNic.mac receivedPacketFromUpperLayer:count 0
scalar MultiCell.ue22.cellularNic.mac receivedPacketFromUpperLayer:sum(packetBytes) 0
scalar MultiCell.ue22.cellularNic.mac macBufferOverFlowD2D:mean -nan
scalar MultiCell.ue22.cellularNic.mac macBufferOverFlowUl:mean -nan
scalar MultiCell.ue22.cellularNic.mac macBufferOverFlowDl:mean -nan
scalar MultiCell.ue22.cellularNic.phy distance:mean -nan
scalar MultiCell.ue22.cellularNic.phy averageCqiUl:mean -nan
scalar MultiCell.ue22.cellularNic.phy averageCqiUl:count 0
scalar MultiCell.ue22.cellularNic.phy averageCqiDl:mean 10
scalar MultiCell.ue22.cellularNic.phy averageCqiDl:count 771
scalar MultiCell.ue22.cellularNic.channelModel[0] measuredSinrUl:mean 7.9395567455914531
scalar MultiCell.ue22.cellularNic.channelModel[0] measuredSinrDl:mean 20.517594304033391
scalar MultiCell.ue22.cellularNic.channelModel[0] rcvdSinrD2D:mean -nan
scalar MultiCell.ue22.cellularNic.channelModel[0] rcvdSinrUl:mean -nan
scalar MultiCell.ue22.cellularNic.channelModel[0] rcvdSinrDl:mean 22.636524407885773
scalar MultiCell.ue22.cellularNic packetDropInterfaceDown:count 0
scalar MultiCell.ue22.cellularNic packetDropInterfaceDown:sum(packetBytes) 0
scalar MultiCell.ue22.cellularNic packetDropNoCarrier:count 0
scalar MultiCell.ue22.cellularNic packetDropNoCarrier:sum(packetBytes) 0
scalar MultiCell.ue22.encap pauseSent:count 0
scalar MultiCell.ue22.encap pauseSent:sum 0
scalar MultiCell.ue22.encap decapPk:count 0
scalar MultiCell.ue22.encap decapPk:sum(packetBytes) 0
scalar MultiCell.ue22.encap encapPk:count 0
scalar MultiCell.ue22.encap encapPk:sum(packetBytes) 0
scalar MultiCell.ue22.ipv4.ip packetDropAddressResolutionFailed:count 0
scalar MultiCell.ue22.ipv4.ip packetDropAddressResolutionFailed:sum(packetBytes) 0
scalar MultiCell.ue22.ipv4.ip packetDropHopLimitReached:count 0
scalar MultiCell.ue22.ipv4.ip packetDropHopLimitReached:sum(packetBytes) 0
scalar MultiCell.ue22.ipv4.ip packetDropForwardingDisabled:count 0
scalar MultiCell.ue22.ipv4.ip packetDropForwardingDisabled:sum(packetBytes) 0
scalar MultiCell.ue22.ipv4.ip packetDropNoInterfaceFound:count 0
scalar MultiCell.ue22.ipv4.ip packetDropNoInterfaceFound:sum(packetBytes) 0
scalar MultiCell.ue22.ipv4.ip packetDropNoRouteFound:count 0
scalar MultiCell.ue22.ipv4.ip packetDropNoRouteFound:sum(packetBytes) 0
scalar MultiCell.ue22.ipv4.ip packetDropUndefined:count 0
scalar MultiCell.ue22.ipv4.ip packetDropUndefined:sum(packetBytes) 0
scalar MultiCell.ue22.ipv4.arp arpResolutionFailed:count 0
scalar MultiCell.ue22.ipv4.arp arpResolutionCompleted:count 0
scalar MultiCell.ue22.ipv4.arp arpResolutionInitiated:count 0
scalar MultiCell.ue22.ipv4.arp arpReplySent:count 0
scalar MultiCell.ue22.ipv4.arp arpReplySent:sum(packetBytes) 0
scalar MultiCell.ue22.ipv4.arp arpRequestSent:count 0
scalar MultiCell.ue22.ipv4.arp arpRequestSent:sum(packetBytes) 0
scalar MultiCell.ue22.udp packetReceived:count 654
scalar MultiCell.ue22.udp packetReceived:sum(packetBytes) 31392
scalar MultiCell.ue22.udp packetSent:count 0
scalar MultiCell.ue22.udp packetSent:sum(packetBytes) 0
scalar MultiCell.ue22.udp passedUpPk:count 654
scalar MultiCell.ue22.udp droppedPkWrongPort:count 0
scalar MultiCell.ue22.udp droppedPkBadChecksum:count 0
scalar MultiCell.ue22.app[0] voipReceivedThroughput:simu5g_rateavg 1409.2682143042396
scalar MultiCell.ue22.app[0] voipPlayoutLoss:mean 0.042754922057155281
scalar MultiCell.ue22.app[0] voipJitter:mean 0.61799999999999999
scalar MultiCell.ue22.app[0] voipTaildropLoss:mean 0.048625792811839319
scalar MultiCell.ue22.app[0] voipMos:mean 3.6308227580596717
scalar MultiCell.ue22.app[0] voipFrameDelay:mean 0.030506105669158963
scalar MultiCell.ue22.app[0] voipFrameLoss:mean 0.031527020511108637
scalar MultiCell.ue22.app[0] voipPlayoutDelay:mean 0.07972727272727273
scalar MultiCell.server.ppp[0].queue queueingTime:histogram:count 2760
scalar MultiCell.server.ppp[0].queue queueingTime:histogram:sumweights 2760
scalar MultiCell.server.ppp[0].queue queueingTime:histogram:mean 0
scalar MultiCell.server.ppp[0].queue queueingTime:histogram:stddev 0
scalar MultiCell.server.ppp[0].queue queueingTime:histogram:min 0
scalar MultiCell.server.ppp[0].queue queueingTime:histogram:max 0
scalar MultiCell.server.ppp[0].queue queueingTime:histogram:numbins 50
scalar MultiCell.server.ppp[0].queue queueingTime:histogram:rangemin -0.5
scalar MultiCell.server.ppp[0].queue queueingTime:histogram:rangemax 0.5
scalar MultiCell.server.ppp[0].queue queueingTime:histogram:underflows 0
scalar MultiCell.server.ppp[0].queue queueingTime:histogram:overflows 0
scalar MultiCell.server.ppp[0].queue outgoingPacketLengths:histogram:count 2760
scalar MultiCell.server.ppp[0].queue outgoingPacketLengths:histogram:sumweights 2760
scalar MultiCell.server.ppp[0].queue outgoingPacketLengths:histogram:mean 544
scalar MultiCell.server.ppp[0].queue outgoingPacketLengths:histogram:stddev 0
scalar MultiCell.server.ppp[0].queue outgoingPacketLengths:histogram:min 544
scalar MultiCell.server.ppp[0].queue outgoingPacketLengths:histogram:max 544
scalar MultiCell.server.ppp[0].queue outgoingPacketLengths:histogram:numbins 2
scalar MultiCell.server.ppp[0].queue outgoingPacketLengths:histogram:rangemin 543
scalar MultiCell.server.ppp[0].queue outgoingPacketLengths:histogram:rangemax 545
scalar MultiCell.server.ppp[0].queue outgoingPacketLengths:histogram:underflows 0
scalar MultiCell.server.ppp[0].queue outgoingPacketLengths:histogram:overflows 0
scalar MultiCell.server.ppp[0].queue flowQueueingTime:histogram:count 0
scalar MultiCell.server.ppp[0].queue flowQueueingTime:histogram:sumweights 0
scalar MultiCell.server.ppp[0].queue flowQueueingTime:histogram:mean -nan
scalar MultiCell.server.ppp[0].queue flowQueueingTime:histogram:stddev nan
scalar MultiCell.server.ppp[0].queue flowQueueingTime:histogram:min nan
scalar MultiCell.server.ppp[0].queue flowQueueingTime:histogram:max nan
scalar MultiCell.server.ppp[0].queue flowQueueingTime:histogram:numbins 1
scalar MultiCell.server.ppp[0].queue flowQueueingTime:histogram:rangemin 0
scalar MultiCell.server.ppp[0].queue flowQueueingTime:histogram:rangemax 1
scalar MultiCell.server.ppp[0].queue flowQueueingTime:histogram:underflows 0
scalar MultiCell.server.ppp[0].queue flowQueueingTime:histogram:overflows 0
scalar MultiCell.server.ppp[0].queue incomingPacketLengths:histogram:count 2760
scalar MultiCell.server.ppp[0].queue incomingPacketLengths:histogram:sumweights 2760
scalar MultiCell.server.ppp[0].queue incomingPacketLengths:histogram:mean 544
scalar MultiCell.server.ppp[0].queue incomingPacketLengths:histogram:stddev 0
scalar MultiCell.server.ppp[0].queue incomingPacketLengths:histogram:min 544
scalar MultiCell.server.ppp[0].queue incomingPacketLengths:histogram:max 544
scalar MultiCell.server.ppp[0].queue incomingPacketLengths:histogram:numbins 2
scalar MultiCell.server.ppp[0].queue incomingPacketLengths:histogram:rangemin 543
scalar MultiCell.server.ppp[0].queue incomingPacketLengths:histogram:rangemax 545
scalar MultiCell.server.ppp[0].queue incomingPacketLengths:histogram:underflows 0
scalar MultiCell.server.ppp[0].queue incomingPacketLengths:histogram:overflows 0
scalar MultiCell.pgw.ppp[0].queue queueingTime:histogram:count 1457
scalar MultiCell.pgw.ppp[0].queue queueingTime:histogram:sumweights 1457
scalar MultiCell.pgw.ppp[0].queue queueingTime:histogram:mean 0
scalar MultiCell.pgw.ppp[0].queue queueingTime:histogram:stddev 0
scalar MultiCell.pgw.ppp[0].queue queueingTime:histogram:min 0
scalar MultiCell.pgw.ppp[0].queue queueingTime:histogram:max 0
scalar MultiCell.pgw.ppp[0].queue queueingTime:histogram:numbins 50
scalar MultiCell.pgw.ppp[0].queue queueingTime:histogram:rangemin -0.5
scalar MultiCell.pgw.ppp[0].queue queueingTime:histogram:rangemax 0.5
scalar MultiCell.pgw.ppp[0].queue queueingTime:histogram:underflows 0
scalar MultiCell.pgw.ppp[0].queue queueingTime:histogram:overflows 0
scalar MultiCell.pgw.ppp[0].queue outgoingPacketLengths:histogram:count 1457
[...]
scalar MultiCell.ue22.cellularNic.mac sentPacketToUpperLayer:vector(packetBytes):max -inf
scalar MultiCell.ue22.cellularNic.mac sentPacketToUpperLayer:vector(packetBytes):starttime nan
scalar MultiCell.ue22.cellularNic.mac sentPacketToUpperLayer:vector(packetBytes):endtime nan
scalar MultiCell.ue22.cellularNic.mac sentPacketToLowerLayer:vector(packetBytes):count 0
scalar MultiCell.ue22.cellularNic.mac sentPacketToLowerLayer:vector(packetBytes):sum 0
scalar MultiCell.ue22.cellularNic.mac sentPacketToLowerLayer:vector(packetBytes):sumweights 0
scalar MultiCell.ue22.cellularNic.mac sentPacketToLowerLayer:vector(packetBytes):mean -nan
scalar MultiCell.ue22.cellularNic.mac sentPacketToLowerLayer:vector(packetBytes):stddev nan
scalar MultiCell.ue22.cellularNic.mac sentPacketToLowerLayer:vector(packetBytes):min inf
scalar MultiCell.ue22.cellularNic.mac sentPacketToLowerLayer:vector(packetBytes):max -inf
scalar MultiCell.ue22.cellularNic.mac sentPacketToLowerLayer:vector(packetBytes):starttime nan
scalar MultiCell.ue22.cellularNic.mac sentPacketToLowerLayer:vector(packetBytes):endtime nan
scalar MultiCell.ue22.cellularNic.phy distance:vector:count 0
scalar MultiCell.ue22.cellularNic.phy distance:vector:sum 0
scalar MultiCell.ue22.cellularNic.phy distance:vector:sumweights 0
scalar MultiCell.ue22.cellularNic.phy distance:vector:mean -nan
scalar MultiCell.ue22.cellularNic.phy distance:vector:stddev nan
scalar MultiCell.ue22.cellularNic.phy distance:vector:min inf
scalar MultiCell.ue22.cellularNic.phy distance:vector:max -inf
scalar MultiCell.ue22.cellularNic.phy distance:vector:starttime nan
scalar MultiCell.ue22.cellularNic.phy distance:vector:endtime nan
scalar MultiCell.ue22.cellularNic.phy averageCqiDl:vector:count 0
scalar MultiCell.ue22.cellularNic.phy averageCqiDl:vector:sum 0
scalar MultiCell.ue22.cellularNic.phy averageCqiDl:vector:sumweights 0
scalar MultiCell.ue22.cellularNic.phy averageCqiDl:vector:mean -nan
scalar MultiCell.ue22.cellularNic.phy averageCqiDl:vector:stddev nan
scalar MultiCell.ue22.cellularNic.phy averageCqiDl:vector:min inf
scalar MultiCell.ue22.cellularNic.phy averageCqiDl:vector:max -inf
scalar MultiCell.ue22.cellularNic.phy averageCqiDl:vector:starttime nan
scalar MultiCell.ue22.cellularNic.phy averageCqiDl:vector:endtime nan
scalar MultiCell.ue22.cellularNic.phy averageCqiUl:vector:count 0
scalar MultiCell.ue22.cellularNic.phy averageCqiUl:vector:sum 0
scalar MultiCell.ue22.cellularNic.phy averageCqiUl:vector:sumweights 0
scalar MultiCell.ue22.cellularNic.phy averageCqiUl:vector:mean -nan
scalar MultiCell.ue22.cellularNic.phy averageCqiUl:vector:stddev nan
scalar MultiCell.ue22.cellularNic.phy averageCqiUl:vector:min inf
scalar MultiCell.ue22.cellularNic.phy averageCqiUl:vector:max -inf
scalar MultiCell.ue22.cellularNic.phy averageCqiUl:vector:starttime nan
scalar MultiCell.ue22.cellularNic.phy averageCqiUl:vector:endtime nan
scalar MultiCell.ue22.cellularNic.channelModel[0] rcvdSinrDl:vector:count 0
scalar MultiCell.ue22.cellularNic.channelModel[0] rcvdSinrDl:vector:sum 0
scalar MultiCell.ue22.cellularNic.channelModel[0] rcvdSinrDl:vector:sumweights 0
scalar MultiCell.ue22.cellularNic.channelModel[0] rcvdSinrDl:vector:mean -nan
scalar MultiCell.ue22.cellularNic.channelModel[0] rcvdSinrDl:vector:stddev nan
scalar MultiCell.ue22.cellularNic.channelModel[0] rcvdSinrDl:vector:min inf
scalar MultiCell.ue22.cellularNic.channelModel[0] rcvdSinrDl:vector:max -inf
scalar MultiCell.ue22.cellularNic.channelModel[0] rcvdSinrDl:vector:starttime nan
scalar MultiCell.ue22.cellularNic.channelModel[0] rcvdSinrDl:vector:endtime nan
scalar MultiCell.ue22.cellularNic.channelModel[0] rcvdSinrUl:vector:count 0
scalar MultiCell.ue22.cellularNic.channelModel[0] rcvdSinrUl:vector:sum 0
scalar MultiCell.ue22.cellularNic.channelModel[0] rcvdSinrUl:vector:sumweights 0
scalar MultiCell.ue22.cellularNic.channelModel[0] rcvdSinrUl:vector:mean -nan
scalar MultiCell.ue22.cellularNic.channelModel[0] rcvdSinrUl:vector:stddev nan
scalar MultiCell.ue22.cellularNic.channelModel[0] rcvdSinrUl:vector:min inf
scalar MultiCell.ue22.cellularNic.channelModel[0] rcvdSinrUl:vector:max -inf
scalar MultiCell.ue22.cellularNic.channelModel[0] rcvdSinrUl:vector:starttime nan
scalar MultiCell.ue22.cellularNic.channelModel[0] rcvdSinrUl:vector:endtime nan
scalar MultiCell.ue22.cellularNic.channelModel[0] rcvdSinrD2D:vector:count 0
scalar MultiCell.ue22.cellularNic.channelModel[0] rcvdSinrD2D:vector:sum 0
scalar MultiCell.ue22.cellularNic.channelModel[0] rcvdSinrD2D:vector:sumweights 0
scalar MultiCell.ue22.cellularNic.channelModel[0] rcvdSinrD2D:vector:mean -nan
scalar MultiCell.ue22.cellularNic.channelModel[0] rcvdSinrD2D:vector:stddev nan
scalar MultiCell.ue22.cellularNic.channelModel[0] rcvdSinrD2D:vector:min inf
scalar MultiCell.ue22.cellularNic.channelModel[0] rcvdSinrD2D:vector:max -inf
scalar MultiCell.ue22.cellularNic.channelModel[0] rcvdSinrD2D:vector:starttime nan
scalar MultiCell.ue22.cellularNic.channelModel[0] rcvdSinrD2D:vector:endtime nan
scalar MultiCell.ue22.cellularNic.channelModel[0] measuredSinrDl:vector:count 0
scalar MultiCell.ue22.cellularNic.channelModel[0] measuredSinrDl:vector:sum 0
scalar MultiCell.ue22.cellularNic.channelModel[0] measuredSinrDl:vector:sumweights 0
scalar MultiCell.ue22.cellularNic.channelModel[0] measuredSinrDl:vector:mean -nan
scalar MultiCell.ue22.cellularNic.channelModel[0] measuredSinrDl:vector:stddev nan
scalar MultiCell.ue22.cellularNic.channelModel[0] measuredSinrDl:vector:min inf
scalar MultiCell.ue22.cellularNic.channelModel[0] measuredSinrDl:vector:max -inf
scalar MultiCell.ue22.cellularNic.channelModel[0] measuredSinrDl:vector:starttime nan
scalar MultiCell.ue22.cellularNic.channelModel[0] measuredSinrDl:vector:endtime nan
scalar MultiCell.ue22.cellularNic.channelModel[0] measuredSinrUl:vector:count 0
scalar MultiCell.ue22.cellularNic.channelModel[0] measuredSinrUl:vector:sum 0
scalar MultiCell.ue22.cellularNic.channelModel[0] measuredSinrUl:vector:sumweights 0
scalar MultiCell.ue22.cellularNic.channelModel[0] measuredSinrUl:vector:mean -nan
scalar MultiCell.ue22.cellularNic.channelModel[0] measuredSinrUl:vector:stddev nan
scalar MultiCell.ue22.cellularNic.channelModel[0] measuredSinrUl:vector:min inf
scalar MultiCell.ue22.cellularNic.channelModel[0] measuredSinrUl:vector:max -inf
scalar MultiCell.ue22.cellularNic.channelModel[0] measuredSinrUl:vector:starttime nan
scalar MultiCell.ue22.cellularNic.channelModel[0] measuredSinrUl:vector:endtime nan
scalar MultiCell.ue22.cellularNic packetDropInterfaceDown:vector(packetBytes):count 0
scalar MultiCell.ue22.cellularNic packetDropInterfaceDown:vector(packetBytes):sum 0
scalar MultiCell.ue22.cellularNic packetDropInterfaceDown:vector(packetBytes):sumweights 0
scalar MultiCell.ue22.cellularNic packetDropInterfaceDown:vector(packetBytes):mean -nan
scalar MultiCell.ue22.cellularNic packetDropInterfaceDown:vector(packetBytes):stddev nan
scalar MultiCell.ue22.cellularNic packetDropInterfaceDown:vector(packetBytes):min inf
scalar MultiCell.ue22.cellularNic packetDropInterfaceDown:vector(packetBytes):max -inf
scalar MultiCell.ue22.cellularNic packetDropInterfaceDown:vector(packetBytes):starttime nan
scalar MultiCell.ue22.cellularNic packetDropInterfaceDown:vector(packetBytes):endtime nan
scalar MultiCell.ue22.cellularNic packetDropNoCarrier:vector(packetBytes):count 0
scalar MultiCell.ue22.cellularNic packetDropNoCarrier:vector(packetBytes):sum 0
scalar MultiCell.ue22.cellularNic packetDropNoCarrier:vector(packetBytes):sumweights 0
scalar MultiCell.ue22.cellularNic packetDropNoCarrier:vector(packetBytes):mean -nan
scalar MultiCell.ue22.cellularNic packetDropNoCarrier:vector(packetBytes):stddev nan
scalar MultiCell.ue22.cellularNic packetDropNoCarrier:vector(packetBytes):min inf
scalar MultiCell.ue22.cellularNic packetDropNoCarrier:vector(packetBytes):max -inf
scalar MultiCell.ue22.cellularNic packetDropNoCarrier:vector(packetBytes):starttime nan
scalar MultiCell.ue22.cellularNic packetDropNoCarrier:vector(packetBytes):endtime nan
scalar MultiCell.ue22.encap encapPk:vector(packetBytes):count 0
scalar MultiCell.ue22.encap encapPk:vector(packetBytes):sum 0
scalar MultiCell.ue22.encap encapPk:vector(packetBytes):sumweights 0
scalar MultiCell.ue22.encap encapPk:vector(packetBytes):mean -nan
scalar MultiCell.ue22.encap encapPk:vector(packetBytes):stddev nan
scalar MultiCell.ue22.encap encapPk:vector(packetBytes):min inf
scalar MultiCell.ue22.encap encapPk:vector(packetBytes):max -inf
scalar MultiCell.ue22.encap encapPk:vector(packetBytes):starttime nan
scalar MultiCell.ue22.encap encapPk:vector(packetBytes):endtime nan
scalar MultiCell.ue22.encap decapPk:vector(packetBytes):count 0
scalar MultiCell.ue22.encap decapPk:vector(packetBytes):sum 0
scalar MultiCell.ue22.encap decapPk:vector(packetBytes):sumweights 0
scalar MultiCell.ue22.encap decapPk:vector(packetBytes):mean -nan
scalar MultiCell.ue22.encap decapPk:vector(packetBytes):stddev nan
scalar MultiCell.ue22.encap decapPk:vector(packetBytes):min inf
scalar MultiCell.ue22.encap decapPk:vector(packetBytes):max -inf
scalar MultiCell.ue22.encap decapPk:vector(packetBytes):starttime nan
scalar MultiCell.ue22.encap decapPk:vector(packetBytes):endtime nan
scalar MultiCell.ue22.encap pauseSent:vector:count 0
scalar MultiCell.ue22.encap pauseSent:vector:sum 0
scalar MultiCell.ue22.encap pauseSent:vector:sumweights 0
scalar MultiCell.ue22.encap pauseSent:vector:mean -nan
scalar MultiCell.ue22.encap pauseSent:vector:stddev nan
scalar MultiCell.ue22.encap pauseSent:vector:min inf
scalar MultiCell.ue22.encap pauseSent:vector:max -inf
scalar MultiCell.ue22.encap pauseSent:vector:starttime nan
scalar MultiCell.ue22.encap pauseSent:vector:endtime nan
scalar MultiCell.ue22.ipv4.ip packetDropAddressResolutionFailed:vector(packetBytes):count 0
scalar MultiCell.ue22.ipv4.ip packetDropAddressResolutionFailed:vector(packetBytes):sum 0
scalar MultiCell.ue22.ipv4.ip packetDropAddressResolutionFailed:vector(packetBytes):sumweights 0
scalar MultiCell.ue22.ipv4.ip packetDropAddressResolutionFailed:vector(packetBytes):mean -nan
scalar MultiCell.ue22.ipv4.ip packetDropAddressResolutionFailed:vector(packetBytes):stddev nan
scalar MultiCell.ue22.ipv4.ip packetDropAddressResolutionFailed:vector(packetBytes):min inf
scalar MultiCell.ue22.ipv4.ip packetDropAddressResolutionFailed:vector(packetBytes):max -inf
scalar MultiCell.ue22.ipv4.ip packetDropAddressResolutionFailed:vector(packetBytes):starttime nan
scalar MultiCell.ue22.ipv4.ip packetDropAddressResolutionFailed:vector(packetBytes):endtime nan
scalar MultiCell.ue22.ipv4.ip packetDropHopLimitReached:vector(packetBytes):count 0
scalar MultiCell.ue22.ipv4.ip packetDropHopLimitReached:vector(packetBytes):sum 0
scalar MultiCell.ue22.ipv4.ip packetDropHopLimitReached:vector(packetBytes):sumweights 0
scalar MultiCell.ue22.ipv4.ip packetDropHopLimitReached:vector(packetBytes):mean -nan
scalar MultiCell.ue22.ipv4.ip packetDropHopLimitReached:vector(packetBytes):stddev nan
scalar MultiCell.ue22.ipv4.ip packetDropHopLimitReached:vector(packetBytes):min inf
scalar MultiCell.ue22.ipv4.ip packetDropHopLimitReached:vector(packetBytes):max -inf
scalar MultiCell.ue22.ipv4.ip packetDropHopLimitReached:vector(packetBytes):starttime nan
scalar MultiCell.ue22.ipv4.ip packetDropHopLimitReached:vector(packetBytes):endtime nan
scalar MultiCell.ue22.ipv4.ip packetDropForwardingDisabled:vector(packetBytes):count 0
scalar MultiCell.ue22.ipv4.ip packetDropForwardingDisabled:vector(packetBytes):sum 0
scalar MultiCell.ue22.ipv4.ip packetDropForwardingDisabled:vector(packetBytes):sumweights 0
scalar MultiCell.ue22.ipv4.ip packetDropForwardingDisabled:vector(packetBytes):mean -nan
scalar MultiCell.ue22.ipv4.ip packetDropForwardingDisabled:vector(packetBytes):stddev nan
scalar MultiCell.ue22.ipv4.ip packetDropForwardingDisabled:vector(packetBytes):min inf
scalar MultiCell.ue22.ipv4.ip packetDropForwardingDisabled:vector(packetBytes):max -inf
scalar MultiCell.ue22.ipv4.ip packetDropForwardingDisabled:vector(packetBytes):starttime nan
scalar MultiCell.ue22.ipv4.ip packetDropForwardingDisabled:vector(packetBytes):endtime nan
scalar MultiCell.ue22.ipv4.ip packetDropNoInterfaceFound:vector(packetBytes):count 0
scalar MultiCell.ue22.ipv4.ip packetDropNoInterfaceFound:vector(packetBytes):sum 0
scalar MultiCell.ue22.ipv4.ip packetDropNoInterfaceFound:vector(packetBytes):sumweights 0
scalar MultiCell.ue22.ipv4.ip packetDropNoInterfaceFound:vector(packetBytes):mean -nan
scalar MultiCell.ue22.ipv4.ip packetDropNoInterfaceFound:vector(packetBytes):stddev nan
scalar MultiCell.ue22.ipv4.ip packetDropNoInterfaceFound:vector(packetBytes):min inf
scalar MultiCell.ue22.ipv4.ip packetDropNoInterfaceFound:vector(packetBytes):max -inf
scalar MultiCell.ue22.ipv4.ip packetDropNoInterfaceFound:vector(packetBytes):starttime nan
scalar MultiCell.ue22.ipv4.ip packetDropNoInterfaceFound:vector(packetBytes):endtime nan
scalar MultiCell.ue22.ipv4.ip packetDropNoRouteFound:vector(packetBytes):count 0
scalar MultiCell.ue22.ipv4.ip packetDropNoRouteFound:vector(packetBytes):sum 0
scalar MultiCell.ue22.ipv4.ip packetDropNoRouteFound:vector(packetBytes):sumweights 0
scalar MultiCell.ue22.ipv4.ip packetDropNoRouteFound:vector(packetBytes):mean -nan
scalar MultiCell.ue22.ipv4.ip packetDropNoRouteFound:vector(packetBytes):stddev nan
scalar MultiCell.ue22.ipv4.ip packetDropNoRouteFound:vector(packetBytes):min inf
scalar MultiCell.ue22.ipv4.ip packetDropNoRouteFound:vector(packetBytes):max -inf
scalar MultiCell.ue22.ipv4.ip packetDropNoRouteFound:vector(packetBytes):starttime nan
scalar MultiCell.ue22.ipv4.ip packetDropNoRouteFound:vector(packetBytes):endtime nan
scalar MultiCell.ue22.ipv4.ip packetDropUndefined:vector(packetBytes):count 0
scalar MultiCell.ue22.ipv4.ip packetDropUndefined:vector(packetBytes):sum 0
scalar MultiCell.ue22.ipv4.ip packetDropUndefined:vector(packetBytes):sumweights 0
scalar MultiCell.ue22.ipv4.ip packetDropUndefined:vector(packetBytes):mean -nan
scalar MultiCell.ue22.ipv4.ip packetDropUndefined:vector(packetBytes):stddev nan
scalar MultiCell.ue22.ipv4.ip packetDropUndefined:vector(packetBytes):min inf
scalar MultiCell.ue22.ipv4.ip packetDropUndefined:vector(packetBytes):max -inf
scalar MultiCell.ue22.ipv4.ip packetDropUndefined:vector(packetBytes):starttime nan
scalar MultiCell.ue22.ipv4.ip packetDropUndefined:vector(packetBytes):endtime nan
scalar MultiCell.ue22.ipv4.arp arpRequestSent:vector(packetBytes):count 0
scalar MultiCell.ue22.ipv4.arp arpRequestSent:vector(packetBytes):sum 0
scalar MultiCell.ue22.ipv4.arp arpRequestSent:vector(packetBytes):sumweights 0
scalar MultiCell.ue22.ipv4.arp arpRequestSent:vector(packetBytes):mean -nan
scalar MultiCell.ue22.ipv4.arp arpRequestSent:vector(packetBytes):stddev nan
scalar MultiCell.ue22.ipv4.arp arpRequestSent:vector(packetBytes):min inf
scalar MultiCell.ue22.ipv4.arp arpRequestSent:vector(packetBytes):max -inf
scalar MultiCell.ue22.ipv4.arp arpRequestSent:vector(packetBytes):starttime nan
scalar MultiCell.ue22.ipv4.arp arpRequestSent:vector(packetBytes):endtime nan
scalar MultiCell.ue22.ipv4.arp arpReplySent:vector(packetBytes):count 0
scalar MultiCell.ue22.ipv4.arp arpReplySent:vector(packetBytes):sum 0
scalar MultiCell.ue22.ipv4.arp arpReplySent:vector(packetBytes):sumweights 0
scalar MultiCell.ue22.ipv4.arp arpReplySent:vector(packetBytes):mean -nan
scalar MultiCell.ue22.ipv4.arp arpReplySent:vector(packetBytes):stddev nan
scalar MultiCell.ue22.ipv4.arp arpReplySent:vector(packetBytes):min inf
scalar MultiCell.ue22.ipv4.arp arpReplySent:vector(packetBytes):max -inf
scalar MultiCell.ue22.ipv4.arp arpReplySent:vector(packetBytes):starttime nan
scalar MultiCell.ue22.ipv4.arp arpReplySent:vector(packetBytes):endtime nan
scalar MultiCell.ue22.udp packetSent:vector(packetBytes):count 0
scalar MultiCell.ue22.udp packetSent:vector(packetBytes):sum 0
scalar MultiCell.ue22.udp packetSent:vector(packetBytes):sumweights 0
scalar MultiCell.ue22.udp packetSent:vector(packetBytes):mean -nan
scalar MultiCell.ue22.udp packetSent:vector(packetBytes):stddev nan
scalar MultiCell.ue22.udp packetSent:vector(packetBytes):min inf
scalar MultiCell.ue22.udp packetSent:vector(packetBytes):max -inf
scalar MultiCell.ue22.udp packetSent:vector(packetBytes):starttime nan
scalar MultiCell.ue22.udp packetSent:vector(packetBytes):endtime nan
scalar MultiCell.ue22.udp packetReceived:vector(packetBytes):count 0
scalar MultiCell.ue22.udp packetReceived:vector(packetBytes):sum 0
scalar MultiCell.ue22.udp packetReceived:vector(packetBytes):sumweights 0
scalar MultiCell.ue22.udp packetReceived:vector(packetBytes):mean -nan
scalar MultiCell.ue22.udp packetReceived:vector(packetBytes):stddev nan
scalar MultiCell.ue22.udp packetReceived:vector(packetBytes):min inf
scalar MultiCell.ue22.udp packetReceived:vector(packetBytes):max -inf
scalar MultiCell.ue22.udp packetReceived:vector(packetBytes):starttime nan
scalar MultiCell.ue22.udp packetReceived:vector(packetBytes):endtime nan
scalar MultiCell.ue22.udp passedUpPk:vector(count):count 0
scalar MultiCell.ue22.udp passedUpPk:vector(count):sum 0
scalar MultiCell.ue22.udp passedUpPk:vector(count):sumweights 0
scalar MultiCell.ue22.udp passedUpPk:vector(count):mean -nan
scalar MultiCell.ue22.udp passedUpPk:vector(count):stddev nan
scalar MultiCell.ue22.udp passedUpPk:vector(count):min inf
scalar MultiCell.ue22.udp passedUpPk:vector(count):max -inf
scalar MultiCell.ue22.udp passedUpPk:vector(count):starttime nan
scalar MultiCell.ue22.udp passedUpPk:vector(count):endtime nan
scalar MultiCell.ue22.udp droppedPkWrongPort:vector(count):count 0
scalar MultiCell.ue22.udp droppedPkWrongPort:vector(count):sum 0
scalar MultiCell.ue22.udp droppedPkWrongPort:vector(count):sumweights 0
scalar MultiCell.ue22.udp droppedPkWrongPort:vector(count):mean -nan
scalar MultiCell.ue22.udp droppedPkWrongPort:vector(count):stddev nan
scalar MultiCell.ue22.udp droppedPkWrongPort:vector(count):min inf
scalar MultiCell.ue22.udp droppedPkWrongPort:vector(count):max -inf
scalar MultiCell.ue22.udp droppedPkWrongPort:vector(count):starttime nan
scalar MultiCell.ue22.udp droppedPkWrongPort:vector(count):endtime nan
scalar MultiCell.ue22.udp droppedPkBadChecksum:vector(count):count 0
scalar MultiCell.ue22.udp droppedPkBadChecksum:vector(count):sum 0
scalar MultiCell.ue22.udp droppedPkBadChecksum:vector(count):sumweights 0
scalar MultiCell.ue22.udp droppedPkBadChecksum:vector(count):mean -nan
scalar MultiCell.ue22.udp droppedPkBadChecksum:vector(count):stddev nan
scalar MultiCell.ue22.udp droppedPkBadChecksum:vector(count):min inf
scalar MultiCell.ue22.udp droppedPkBadChecksum:vector(count):max -inf
scalar MultiCell.ue22.udp droppedPkBadChecksum:vector(count):starttime nan
scalar MultiCell.ue22.udp droppedPkBadChecksum:vector(count):endtime nan
scalar MultiCell.ue22.app[0] voipFrameDelay:vector:count 0
scalar MultiCell.ue22.app[0] voipFrameDelay:vector:sum 0
scalar MultiCell.ue22.app[0] voipFrameDelay:vector:sumweights 0
scalar MultiCell.ue22.app[0] voipFrameDelay:vector:mean -nan
scalar MultiCell.ue22.app[0] voipFrameDelay:vector:stddev nan
scalar MultiCell.ue22.app[0] voipFrameDelay:vector:min inf
scalar MultiCell.ue22.app[0] voipFrameDelay:vector:max -inf
scalar MultiCell.ue22.app[0] voipFrameDelay:vector:starttime nan
scalar MultiCell.ue22.app[0] voipFrameDelay:vector:endtime nan
scalar MultiCell.ue22.app[0] voipReceivedThroughput:vector:count 0
scalar MultiCell.ue22.app[0] voipReceivedThroughput:vector:sum 0
scalar MultiCell.ue22.app[0] voipReceivedThroughput:vector:sumweights 0
scalar MultiCell.ue22.app[0] voipReceivedThroughput:vector:mean -nan
scalar MultiCell.ue22.app[0] voipReceivedThroughput:vector:stddev nan
scalar MultiCell.ue22.app[0] voipReceivedThroughput:vector:min inf
scalar MultiCell.ue22.app[0] voipReceivedThroughput:vector:max -inf
scalar MultiCell.ue22.app[0] voipReceivedThroughput:vector:starttime nan
scalar MultiCell.ue22.app[0] voipReceivedThroughput:vector:endtime nan

