version 3
run InterferenceTest-0-20260709-21:29:47-650848
attr configname InterferenceTest
attr datetime 20260709-21:29:47
attr datetimef 20260709-212947
attr experiment InterferenceTest
attr inifile omnetpp.ini
attr iterationvars "$extAllocType=\"FULL_ALLOC\""
attr iterationvarsd extAllocType=FULL#_ALLOC
attr iterationvarsf extAllocType=FULL#_ALLOC-
attr measurement "$extAllocType=\"FULL_ALLOC\""
attr network simu5g.simulations.lte.networks.MultiCell
attr processid 650848
attr repetition 0
attr replication #0
attr resultdir results
attr runnumber 0
attr seedset 0
itervar extAllocType "\"FULL_ALLOC\""
config **.param-recording false
config image-path /home/andras/projects/Simu5G-fork/simu5g-fork/images
config output-scalar-file results/omnetpp.ini-InterferenceTest-#0.sca
config output-scalar-precision 17
config output-vector-file results/omnetpp.ini-InterferenceTest-#0.vec
config output-vector-precision 17
config record-eventlog false
config sim-time-limit 10s
config output-scalar-file "results/InterferenceTest-$extAllocType=\"FULL_ALLOC\"-0.sca"
config output-vector-file "results/InterferenceTest-$extAllocType=\"FULL_ALLOC\"-0.vec"
config extends VoIP
config sim-time-limit 10s
config repeat 1
config *.eNodeB*.mobility.initFromDisplayString false
config *.eNodeB1.mobility.initialX 100m
config *.eNodeB1.mobility.initialY 100m
config *.eNodeB2.mobility.initialX 600m
config *.eNodeB2.mobility.initialY 100m
config *.eNodeB*.cellularNic.phy.txDirection "\"ANISOTROPIC\""
config *.eNodeB1.cellularNic.phy.txAngle 45deg
config *.eNodeB2.cellularNic.phy.txAngle 135deg
config *.numExtCells 2
config *.extCell[*].txPower 20dBm
config *.extCell[*].txDirection "\"ANISOTROPIC\""
config *.extCell[*].bandAllocationType "\"FULL_ALLOC\""
config *.extCell[*].bandUtilization 0.5
config *.extCell[0].positionX 100m
config *.extCell[0].positionY 600m
config *.extCell[0].txAngle 315deg
config *.extCell[1].positionX 600m
config *.extCell[1].positionY 600m
config *.extCell[1].txAngle 225deg
config *.ue11.mobility.initialX 150m
config *.ue11.mobility.initialY 150m
config *.ue12.mobility.initialX 250m
config *.ue12.mobility.initialY 250m
config *.ue21.mobility.initialX 550m
config *.ue21.mobility.initialY 150m
config *.ue22.mobility.initialX 450m
config *.ue22.mobility.initialY 250m
config *.ue*.mobility.typename StationaryMobility
config *.server.numApps 4
config **.mac.schedulingDisciplineDl "\"MAXCI\""
config **.mac.schedulingDisciplineUl "\"MAXCI\""
config *.ue*.numApps 1
config *.server.numApps 4
config **.ue1*.macCellId 1
config **.ue1*.masterId 1
config **.ue2*.macCellId 2
config **.ue2*.masterId 2
config *.ue*.mobility.initialMovementHeading "uniform(0deg, 360deg)"
config *.ue*.mobility.constraintAreaMaxX 1000m
config *.ue*.mobility.constraintAreaMaxY 1000m
config *.ue*.mobility.constraintAreaMinX 0m
config *.ue*.mobility.constraintAreaMinY 0m
config *.ue*.mobility.initFromDisplayString false
config *.ue*.mobility.initialX uniform(0m,300m)
config *.ue*.mobility.initialY uniform(0m,300m)
config *.ue*.mobility.initialZ 0m
config *.ue*.mobility.speed 0mps
config *.ue*.mobility.typename LinearMobility
config *.ue*.app[*].typename VoipReceiver
config *.ue*.app[0].localPort 3000
config *.server.app[*].packetSize 40B
config *.server.app[0].destAddress "\"ue11\""
config *.server.app[1].destAddress "\"ue12\""
config *.server.app[2].destAddress "\"ue21\""
config *.server.app[3].destAddress "\"ue22\""
config *.server.app[*].destPort 3000
config *.server.app[*].localPort 3088+ancestorIndex(0)
config *.server.app[*].typename VoipSender
config *.server.app[*].startTime uniform(0s,0.02s)
config sim-time-limit 20s
config network simu5g.simulations.lte.networks.MultiCell
config **.routingRecorder.enabled false
config **.vector-recording false
config seed-set 0
config **.cellularNic.channelModel[0].downlinkInterference true
config **.mobility.constraintAreaMinZ 0m
config **.mobility.constraintAreaMaxZ 0m
config **.mobility.initFromDisplayString true
config **.numBands 6
config **.ueTxPower 26dBm
config **.eNodeBTxPower 40dBm
config *.configurator.config "xmldoc(\"./demo.xml\")"

scalar MultiCell.server.lo[0].lo rcvdPkFromHl:count 0
scalar MultiCell.server.lo[0].lo rcvdPkFromHl:sum(packetBytes) 0
scalar MultiCell.server.lo[0].lo passedUpPk:count 0
scalar MultiCell.server.lo[0].lo passedUpPk:sum(packetBytes) 0
scalar MultiCell.server.lo[0] packetDropInterfaceDown:count 0
scalar MultiCell.server.lo[0] packetDropInterfaceDown:sum(packetBytes) 0
scalar MultiCell.server.lo[0] packetDropNoCarrier:count 0
scalar MultiCell.server.lo[0] packetDropNoCarrier:sum(packetBytes) 0
scalar MultiCell.server.ppp[0].queue queueLength:last 0
scalar MultiCell.server.ppp[0].queue queueLength:max 0
scalar MultiCell.server.ppp[0].queue queueLength:timeavg 0
scalar MultiCell.server.ppp[0].queue queueBitLength:last 0
scalar MultiCell.server.ppp[0].queue queueBitLength:max 0
scalar MultiCell.server.ppp[0].queue queueBitLength:timeavg 0
scalar MultiCell.server.ppp[0].queue outgoingPackets:count 1259
scalar MultiCell.server.ppp[0].queue outgoingPacketLengths:sum 684896
scalar MultiCell.server.ppp[0].queue incomingPackets:count 1259
scalar MultiCell.server.ppp[0].queue incomingPacketLengths:sum 684896
scalar MultiCell.server.ppp[0].queue droppedPacketsQueueOverflow:count 0
scalar MultiCell.server.ppp[0].queue droppedPacketLengthsQueueOverflow:sum 0
scalar MultiCell.server.ppp[0].ppp transmissionState:timeavg 7.5540000000000271e-06
scalar MultiCell.server.ppp[0].ppp rxPkOk:count 0
scalar MultiCell.server.ppp[0].ppp rxPkOk:sum(packetBytes) 0
scalar MultiCell.server.ppp[0].ppp txPk:count 1259
scalar MultiCell.server.ppp[0].ppp txPk:sum(packetBytes) 94425
scalar MultiCell.server.ppp[0].ppp rcvdPkFromHl:count 1259
scalar MultiCell.server.ppp[0].ppp rcvdPkFromHl:sum(packetBytes) 85612
scalar MultiCell.server.ppp[0].ppp passedUpPk:count 0
scalar MultiCell.server.ppp[0].ppp passedUpPk:sum(packetBytes) 0
scalar MultiCell.server.ppp[0].ppp packetDropIncorrectlyReceived:count 0
scalar MultiCell.server.ppp[0].ppp packetDropIncorrectlyReceived:sum(packetBytes) 0
scalar MultiCell.server.ppp[0].ppp packetDropInterfaceDown:count 0
scalar MultiCell.server.ppp[0].ppp packetDropInterfaceDown:sum(packetBytes) 0
scalar MultiCell.server.ppp[0] packetDropInterfaceDown:count 0
scalar MultiCell.server.ppp[0] packetDropInterfaceDown:sum(packetBytes) 0
scalar MultiCell.server.ppp[0] packetDropNoCarrier:count 0
scalar MultiCell.server.ppp[0] packetDropNoCarrier:sum(packetBytes) 0
scalar MultiCell.server.ipv4.ip packetDropAddressResolutionFailed:count 0
scalar MultiCell.server.ipv4.ip packetDropAddressResolutionFailed:sum(packetBytes) 0
scalar MultiCell.server.ipv4.ip packetDropHopLimitReached:count 0
scalar MultiCell.server.ipv4.ip packetDropHopLimitReached:sum(packetBytes) 0
scalar MultiCell.server.ipv4.ip packetDropForwardingDisabled:count 0
scalar MultiCell.server.ipv4.ip packetDropForwardingDisabled:sum(packetBytes) 0
scalar MultiCell.server.ipv4.ip packetDropNoInterfaceFound:count 0
scalar MultiCell.server.ipv4.ip packetDropNoInterfaceFound:sum(packetBytes) 0
scalar MultiCell.server.ipv4.ip packetDropNoRouteFound:count 0
scalar MultiCell.server.ipv4.ip packetDropNoRouteFound:sum(packetBytes) 0
scalar MultiCell.server.ipv4.ip packetDropUndefined:count 0
scalar MultiCell.server.ipv4.ip packetDropUndefined:sum(packetBytes) 0
scalar MultiCell.server.ipv4.arp arpResolutionFailed:count 0
scalar MultiCell.server.ipv4.arp arpResolutionCompleted:count 0
scalar MultiCell.server.ipv4.arp arpResolutionInitiated:count 0
scalar MultiCell.server.ipv4.arp arpReplySent:count 0
scalar MultiCell.server.ipv4.arp arpReplySent:sum(packetBytes) 0
scalar MultiCell.server.ipv4.arp arpRequestSent:count 0
scalar MultiCell.server.ipv4.arp arpRequestSent:sum(packetBytes) 0
scalar MultiCell.server.udp packetReceived:count 0
scalar MultiCell.server.udp packetReceived:sum(packetBytes) 0
scalar MultiCell.server.udp packetSent:count 1259
scalar MultiCell.server.udp packetSent:sum(packetBytes) 60432
scalar MultiCell.server.udp passedUpPk:count 0
scalar MultiCell.server.udp droppedPkWrongPort:count 0
scalar MultiCell.server.udp droppedPkBadChecksum:count 0
scalar MultiCell.server.app[0] voIPGeneratedThroughput:mean 1379.1603973320878
scalar MultiCell.server.app[1] voIPGeneratedThroughput:mean 1065.6713779753504
scalar MultiCell.server.app[2] voIPGeneratedThroughput:mean 1620.727078945896
scalar MultiCell.server.app[3] voIPGeneratedThroughput:mean 1889.4975576821344
scalar MultiCell.pgw.lo[0].lo rcvdPkFromHl:count 0
scalar MultiCell.pgw.lo[0].lo rcvdPkFromHl:sum(packetBytes) 0
scalar MultiCell.pgw.lo[0].lo passedUpPk:count 0
scalar MultiCell.pgw.lo[0].lo passedUpPk:sum(packetBytes) 0
scalar MultiCell.pgw.lo[0] packetDropInterfaceDown:count 0
scalar MultiCell.pgw.lo[0] packetDropInterfaceDown:sum(packetBytes) 0
scalar MultiCell.pgw.lo[0] packetDropNoCarrier:count 0
scalar MultiCell.pgw.lo[0] packetDropNoCarrier:sum(packetBytes) 0
scalar MultiCell.pgw.ppp[0].queue queueLength:last 0
scalar MultiCell.pgw.ppp[0].queue queueLength:max 0
scalar MultiCell.pgw.ppp[0].queue queueLength:timeavg 0
scalar MultiCell.pgw.ppp[0].queue queueBitLength:last 0
scalar MultiCell.pgw.ppp[0].queue queueBitLength:max 0
scalar MultiCell.pgw.ppp[0].queue queueBitLength:timeavg 0
scalar MultiCell.pgw.ppp[0].queue outgoingPackets:count 555
scalar MultiCell.pgw.ppp[0].queue outgoingPacketLengths:sum 461760
scalar MultiCell.pgw.ppp[0].queue incomingPackets:count 555
scalar MultiCell.pgw.ppp[0].queue incomingPacketLengths:sum 461760
scalar MultiCell.pgw.ppp[0].queue droppedPacketsQueueOverflow:count 0
scalar MultiCell.pgw.ppp[0].queue droppedPacketLengthsQueueOverflow:sum 0
scalar MultiCell.pgw.ppp[0].ppp transmissionState:timeavg 4.9283999999999874e-06
scalar MultiCell.pgw.ppp[0].ppp rxPkOk:count 0
scalar MultiCell.pgw.ppp[0].ppp rxPkOk:sum(packetBytes) 0
scalar MultiCell.pgw.ppp[0].ppp txPk:count 555
scalar MultiCell.pgw.ppp[0].ppp txPk:sum(packetBytes) 61605
scalar MultiCell.pgw.ppp[0].ppp rcvdPkFromHl:count 555
scalar MultiCell.pgw.ppp[0].ppp rcvdPkFromHl:sum(packetBytes) 57720
scalar MultiCell.pgw.ppp[0].ppp passedUpPk:count 0
scalar MultiCell.pgw.ppp[0].ppp passedUpPk:sum(packetBytes) 0
scalar MultiCell.pgw.ppp[0].ppp packetDropIncorrectlyReceived:count 0
scalar MultiCell.pgw.ppp[0].ppp packetDropIncorrectlyReceived:sum(packetBytes) 0
scalar MultiCell.pgw.ppp[0].ppp packetDropInterfaceDown:count 0
scalar MultiCell.pgw.ppp[0].ppp packetDropInterfaceDown:sum(packetBytes) 0
scalar MultiCell.pgw.ppp[0] packetDropInterfaceDown:count 0
scalar MultiCell.pgw.ppp[0] packetDropInterfaceDown:sum(packetBytes) 0
scalar MultiCell.pgw.ppp[0] packetDropNoCarrier:count 0
scalar MultiCell.pgw.ppp[0] packetDropNoCarrier:sum(packetBytes) 0
scalar MultiCell.pgw.ppp[1].queue queueLength:last 0
scalar MultiCell.pgw.ppp[1].queue queueLength:max 0
scalar MultiCell.pgw.ppp[1].queue queueLength:timeavg 0
scalar MultiCell.pgw.ppp[1].queue queueBitLength:last 0
scalar MultiCell.pgw.ppp[1].queue queueBitLength:max 0
scalar MultiCell.pgw.ppp[1].queue queueBitLength:timeavg 0
scalar MultiCell.pgw.ppp[1].queue outgoingPackets:count 704
scalar MultiCell.pgw.ppp[1].queue outgoingPacketLengths:sum 585728
scalar MultiCell.pgw.ppp[1].queue incomingPackets:count 704
scalar MultiCell.pgw.ppp[1].queue incomingPacketLengths:sum 585728
scalar MultiCell.pgw.ppp[1].queue droppedPacketsQueueOverflow:count 0
scalar MultiCell.pgw.ppp[1].queue droppedPacketLengthsQueueOverflow:sum 0
scalar MultiCell.pgw.ppp[1].ppp transmissionState:timeavg 6.251519999999972e-06
scalar MultiCell.pgw.ppp[1].ppp rxPkOk:count 0
scalar MultiCell.pgw.ppp[1].ppp rxPkOk:sum(packetBytes) 0
scalar MultiCell.pgw.ppp[1].ppp txPk:count 704
scalar MultiCell.pgw.ppp[1].ppp txPk:sum(packetBytes) 78144
scalar MultiCell.pgw.ppp[1].ppp rcvdPkFromHl:count 704
scalar MultiCell.pgw.ppp[1].ppp rcvdPkFromHl:sum(packetBytes) 73216
scalar MultiCell.pgw.ppp[1].ppp passedUpPk:count 0
scalar MultiCell.pgw.ppp[1].ppp passedUpPk:sum(packetBytes) 0
scalar MultiCell.pgw.ppp[1].ppp packetDropIncorrectlyReceived:count 0
scalar MultiCell.pgw.ppp[1].ppp packetDropIncorrectlyReceived:sum(packetBytes) 0
scalar MultiCell.pgw.ppp[1].ppp packetDropInterfaceDown:count 0
scalar MultiCell.pgw.ppp[1].ppp packetDropInterfaceDown:sum(packetBytes) 0
scalar MultiCell.pgw.ppp[1] packetDropInterfaceDown:count 0
scalar MultiCell.pgw.ppp[1] packetDropInterfaceDown:sum(packetBytes) 0
scalar MultiCell.pgw.ppp[1] packetDropNoCarrier:count 0
scalar MultiCell.pgw.ppp[1] packetDropNoCarrier:sum(packetBytes) 0
scalar MultiCell.pgw.ipv4.ip packetDropAddressResolutionFailed:count 0
scalar MultiCell.pgw.ipv4.ip packetDropAddressResolutionFailed:sum(packetBytes) 0
scalar MultiCell.pgw.ipv4.ip packetDropHopLimitReached:count 0
scalar MultiCell.pgw.ipv4.ip packetDropHopLimitReached:sum(packetBytes) 0
scalar MultiCell.pgw.ipv4.ip packetDropForwardingDisabled:count 0
scalar MultiCell.pgw.ipv4.ip packetDropForwardingDisabled:sum(packetBytes) 0
scalar MultiCell.pgw.ipv4.ip packetDropNoInterfaceFound:count 0
scalar MultiCell.pgw.ipv4.ip packetDropNoInterfaceFound:sum(packetBytes) 0
scalar MultiCell.pgw.ipv4.ip packetDropNoRouteFound:count 0
scalar MultiCell.pgw.ipv4.ip packetDropNoRouteFound:sum(packetBytes) 0
scalar MultiCell.pgw.ipv4.ip packetDropUndefined:count 0
scalar MultiCell.pgw.ipv4.ip packetDropUndefined:sum(packetBytes) 0
scalar MultiCell.pgw.ipv4.arp arpResolutionFailed:count 0
scalar MultiCell.pgw.ipv4.arp arpResolutionCompleted:count 0
scalar MultiCell.pgw.ipv4.arp arpResolutionInitiated:count 0
scalar MultiCell.pgw.ipv4.arp arpReplySent:count 0
scalar MultiCell.pgw.ipv4.arp arpReplySent:sum(packetBytes) 0
scalar MultiCell.pgw.ipv4.arp arpRequestSent:count 0
scalar MultiCell.pgw.ipv4.arp arpRequestSent:sum(packetBytes) 0
scalar MultiCell.pgw.pppIf.queue queueLength:last 0
scalar MultiCell.pgw.pppIf.queue queueLength:max 0
scalar MultiCell.pgw.pppIf.queue queueLength:timeavg 0
scalar MultiCell.pgw.pppIf.queue queueBitLength:last 0
scalar MultiCell.pgw.pppIf.queue queueBitLength:max 0
scalar MultiCell.pgw.pppIf.queue queueBitLength:timeavg 0
scalar MultiCell.pgw.pppIf.queue outgoingPackets:count 0
scalar MultiCell.pgw.pppIf.queue outgoingPacketLengths:sum 0
scalar MultiCell.pgw.pppIf.queue incomingPackets:count 0
scalar MultiCell.pgw.pppIf.queue incomingPacketLengths:sum 0
scalar MultiCell.pgw.pppIf.queue droppedPacketsQueueOverflow:count 0
scalar MultiCell.pgw.pppIf.queue droppedPacketLengthsQueueOverflow:sum 0
scalar MultiCell.pgw.pppIf.ppp transmissionState:timeavg 0
scalar MultiCell.pgw.pppIf.ppp rxPkOk:count 1259
scalar MultiCell.pgw.pppIf.ppp rxPkOk:sum(packetBytes) 94425
scalar MultiCell.pgw.pppIf.ppp txPk:count 0
scalar MultiCell.pgw.pppIf.ppp txPk:sum(packetBytes) 0
scalar MultiCell.pgw.pppIf.ppp rcvdPkFromHl:count 0
scalar MultiCell.pgw.pppIf.ppp rcvdPkFromHl:sum(packetBytes) 0
scalar MultiCell.pgw.pppIf.ppp passedUpPk:count 1259
scalar MultiCell.pgw.pppIf.ppp passedUpPk:sum(packetBytes) 85612
scalar MultiCell.pgw.pppIf.ppp packetDropIncorrectlyReceived:count 0
scalar MultiCell.pgw.pppIf.ppp packetDropIncorrectlyReceived:sum(packetBytes) 0
scalar MultiCell.pgw.pppIf.ppp packetDropInterfaceDown:count 0
scalar MultiCell.pgw.pppIf.ppp packetDropInterfaceDown:sum(packetBytes) 0
scalar MultiCell.pgw.pppIf packetDropInterfaceDown:count 0
scalar MultiCell.pgw.pppIf packetDropInterfaceDown:sum(packetBytes) 0
scalar MultiCell.pgw.pppIf packetDropNoCarrier:count 0
scalar MultiCell.pgw.pppIf packetDropNoCarrier:sum(packetBytes) 0
scalar MultiCell.pgw.udp packetReceived:count 0
scalar MultiCell.pgw.udp packetReceived:sum(packetBytes) 0
scalar MultiCell.pgw.udp packetSent:count 1259
scalar MultiCell.pgw.udp packetSent:sum(packetBytes) 105756
scalar MultiCell.pgw.udp passedUpPk:count 0
scalar MultiCell.pgw.udp droppedPkWrongPort:count 0
scalar MultiCell.pgw.udp droppedPkBadChecksum:count 0
scalar MultiCell.router.lo[0].lo rcvdPkFromHl:count 0
scalar MultiCell.router.lo[0].lo rcvdPkFromHl:sum(packetBytes) 0
scalar MultiCell.router.lo[0].lo passedUpPk:count 0
scalar MultiCell.router.lo[0].lo passedUpPk:sum(packetBytes) 0
scalar MultiCell.router.lo[0] packetDropInterfaceDown:count 0
scalar MultiCell.router.lo[0] packetDropInterfaceDown:sum(packetBytes) 0
scalar MultiCell.router.lo[0] packetDropNoCarrier:count 0
scalar MultiCell.router.lo[0] packetDropNoCarrier:sum(packetBytes) 0
scalar MultiCell.router.ppp[0].queue queueLength:last 0
scalar MultiCell.router.ppp[0].queue queueLength:max 0
scalar MultiCell.router.ppp[0].queue queueLength:timeavg 0
scalar MultiCell.router.ppp[0].queue queueBitLength:last 0
scalar MultiCell.router.ppp[0].queue queueBitLength:max 0
scalar MultiCell.router.ppp[0].queue queueBitLength:timeavg 0
scalar MultiCell.router.ppp[0].queue outgoingPackets:count 0
scalar MultiCell.router.ppp[0].queue outgoingPacketLengths:sum 0
scalar MultiCell.router.ppp[0].queue incomingPackets:count 0
scalar MultiCell.router.ppp[0].queue incomingPacketLengths:sum 0
scalar MultiCell.router.ppp[0].queue droppedPacketsQueueOverflow:count 0
scalar MultiCell.router.ppp[0].queue droppedPacketLengthsQueueOverflow:sum 0
scalar MultiCell.router.ppp[0].ppp transmissionState:timeavg 0
scalar MultiCell.router.ppp[0].ppp rxPkOk:count 1259
scalar MultiCell.router.ppp[0].ppp rxPkOk:sum(packetBytes) 94425
scalar MultiCell.router.ppp[0].ppp txPk:count 0
scalar MultiCell.router.ppp[0].ppp txPk:sum(packetBytes) 0
scalar MultiCell.router.ppp[0].ppp rcvdPkFromHl:count 0
scalar MultiCell.router.ppp[0].ppp rcvdPkFromHl:sum(packetBytes) 0
scalar MultiCell.router.ppp[0].ppp passedUpPk:count 1259
scalar MultiCell.router.ppp[0].ppp passedUpPk:sum(packetBytes) 85612
scalar MultiCell.router.ppp[0].ppp packetDropIncorrectlyReceived:count 0
scalar MultiCell.router.ppp[0].ppp packetDropIncorrectlyReceived:sum(packetBytes) 0
scalar MultiCell.router.ppp[0].ppp packetDropInterfaceDown:count 0
scalar MultiCell.router.ppp[0].ppp packetDropInterfaceDown:sum(packetBytes) 0
scalar MultiCell.router.ppp[0] packetDropInterfaceDown:count 0
scalar MultiCell.router.ppp[0] packetDropInterfaceDown:sum(packetBytes) 0
scalar MultiCell.router.ppp[0] packetDropNoCarrier:count 0
scalar MultiCell.router.ppp[0] packetDropNoCarrier:sum(packetBytes) 0
scalar MultiCell.router.ppp[1].queue queueLength:last 0
scalar MultiCell.router.ppp[1].queue queueLength:max 0
scalar MultiCell.router.ppp[1].queue queueLength:timeavg 0
scalar MultiCell.router.ppp[1].queue queueBitLength:last 0
scalar MultiCell.router.ppp[1].queue queueBitLength:max 0
scalar MultiCell.router.ppp[1].queue queueBitLength:timeavg 0
scalar MultiCell.router.ppp[1].queue outgoingPackets:count 1259
scalar MultiCell.router.ppp[1].queue outgoingPacketLengths:sum 684896
scalar MultiCell.router.ppp[1].queue incomingPackets:count 1259
scalar MultiCell.router.ppp[1].queue incomingPacketLengths:sum 684896
scalar MultiCell.router.ppp[1].queue droppedPacketsQueueOverflow:count 0
scalar MultiCell.router.ppp[1].queue droppedPacketLengthsQueueOverflow:sum 0
scalar MultiCell.router.ppp[1].ppp transmissionState:timeavg 7.5540000000000271e-06
scalar MultiCell.router.ppp[1].ppp rxPkOk:count 0
scalar MultiCell.router.ppp[1].ppp rxPkOk:sum(packetBytes) 0
scalar MultiCell.router.ppp[1].ppp txPk:count 1259
scalar MultiCell.router.ppp[1].ppp txPk:sum(packetBytes) 94425
scalar MultiCell.router.ppp[1].ppp rcvdPkFromHl:count 1259
scalar MultiCell.router.ppp[1].ppp rcvdPkFromHl:sum(packetBytes) 85612
scalar MultiCell.router.ppp[1].ppp passedUpPk:count 0
scalar MultiCell.router.ppp[1].ppp passedUpPk:sum(packetBytes) 0
scalar MultiCell.router.ppp[1].ppp packetDropIncorrectlyReceived:count 0
scalar MultiCell.router.ppp[1].ppp packetDropIncorrectlyReceived:sum(packetBytes) 0
scalar MultiCell.router.ppp[1].ppp packetDropInterfaceDown:count 0
scalar MultiCell.router.ppp[1].ppp packetDropInterfaceDown:sum(packetBytes) 0
scalar MultiCell.router.ppp[1] packetDropInterfaceDown:count 0
scalar MultiCell.router.ppp[1] packetDropInterfaceDown:sum(packetBytes) 0
scalar MultiCell.router.ppp[1] packetDropNoCarrier:count 0
scalar MultiCell.router.ppp[1] packetDropNoCarrier:sum(packetBytes) 0
scalar MultiCell.router.ipv4.ip packetDropAddressResolutionFailed:count 0
scalar MultiCell.router.ipv4.ip packetDropAddressResolutionFailed:sum(packetBytes) 0
scalar MultiCell.router.ipv4.ip packetDropHopLimitReached:count 0
scalar MultiCell.router.ipv4.ip packetDropHopLimitReached:sum(packetBytes) 0
scalar MultiCell.router.ipv4.ip packetDropForwardingDisabled:count 0
scalar MultiCell.router.ipv4.ip packetDropForwardingDisabled:sum(packetBytes) 0
scalar MultiCell.router.ipv4.ip packetDropNoInterfaceFound:count 0
scalar MultiCell.router.ipv4.ip packetDropNoInterfaceFound:sum(packetBytes) 0
scalar MultiCell.router.ipv4.ip packetDropNoRouteFound:count 0
scalar MultiCell.router.ipv4.ip packetDropNoRouteFound:sum(packetBytes) 0
scalar MultiCell.router.ipv4.ip packetDropUndefined:count 0
scalar MultiCell.router.ipv4.ip packetDropUndefined:sum(packetBytes) 0
scalar MultiCell.router.ipv4.arp arpResolutionFailed:count 0
scalar MultiCell.router.ipv4.arp arpResolutionCompleted:count 0
scalar MultiCell.router.ipv4.arp arpResolutionInitiated:count 0
scalar MultiCell.router.ipv4.arp arpReplySent:count 0
scalar MultiCell.router.ipv4.arp arpReplySent:sum(packetBytes) 0
scalar MultiCell.router.ipv4.arp arpRequestSent:count 0
scalar MultiCell.router.ipv4.arp arpRequestSent:sum(packetBytes) 0
scalar MultiCell.eNodeB1.cellularNic.pdcp sentPacketToLowerLayer:count 555
scalar MultiCell.eNodeB1.cellularNic.pdcp sentPacketToLowerLayer:sum(packetBytes) 38295
scalar MultiCell.eNodeB1.cellularNic.pdcp sentPacketToUpperLayer:count 0
scalar MultiCell.eNodeB1.cellularNic.pdcp sentPacketToUpperLayer:sum(packetBytes) 0
scalar MultiCell.eNodeB1.cellularNic.pdcp receivedPacketFromLowerLayer:count 0
scalar MultiCell.eNodeB1.cellularNic.pdcp receivedPacketFromLowerLayer:sum(packetBytes) 0
scalar MultiCell.eNodeB1.cellularNic.pdcp receivedPacketFromUpperLayer:count 555
scalar MultiCell.eNodeB1.cellularNic.pdcp receivedPacketFromUpperLayer:sum(packetBytes) 37740
scalar MultiCell.eNodeB1.cellularNic.rlc.tm rlcPacketLossUl:mean -nan
scalar MultiCell.eNodeB1.cellularNic.rlc.tm rlcPacketLossUl:sum 0
scalar MultiCell.eNodeB1.cellularNic.rlc.tm rlcPacketLossDl:mean -nan
scalar MultiCell.eNodeB1.cellularNic.rlc.tm rlcPacketLossDl:sum 0
scalar MultiCell.eNodeB1.cellularNic.rlc.tm sentPacketToLowerLayer:count 0
scalar MultiCell.eNodeB1.cellularNic.rlc.tm sentPacketToLowerLayer:sum(packetBytes) 0
scalar MultiCell.eNodeB1.cellularNic.rlc.tm sentPacketToUpperLayer:count 0
scalar MultiCell.eNodeB1.cellularNic.rlc.tm sentPacketToUpperLayer:sum(packetBytes) 0
scalar MultiCell.eNodeB1.cellularNic.rlc.tm receivedPacketFromLowerLayer:count 0
scalar MultiCell.eNodeB1.cellularNic.rlc.tm receivedPacketFromLowerLayer:sum(packetBytes) 0
scalar MultiCell.eNodeB1.cellularNic.rlc.tm receivedPacketFromUpperLayer:count 0
scalar MultiCell.eNodeB1.cellularNic.rlc.tm receivedPacketFromUpperLayer:sum(packetBytes) 0
scalar MultiCell.eNodeB1.cellularNic.rlc.um rlcPacketLossTotal:mean -nan
scalar MultiCell.eNodeB1.cellularNic.rlc.um rlcCellThroughputUl:mean -nan
scalar MultiCell.eNodeB1.cellularNic.rlc.um rlcCellThroughputDl:mean 9660.2129969917059
scalar MultiCell.eNodeB1.cellularNic.rlc.um rlcPduThroughputUl:mean -nan
scalar MultiCell.eNodeB1.cellularNic.rlc.um rlcPduThroughputDl:mean -nan
scalar MultiCell.eNodeB1.cellularNic.rlc.um rlcPduDelayUl:mean -nan
scalar MultiCell.eNodeB1.cellularNic.rlc.um rlcPduDelayDl:mean -nan
scalar MultiCell.eNodeB1.cellularNic.rlc.um rlcThroughputUl:mean -nan
scalar MultiCell.eNodeB1.cellularNic.rlc.um rlcThroughputDl:mean -nan
scalar MultiCell.eNodeB1.cellularNic.rlc.um rlcDelayUl:mean -nan
scalar MultiCell.eNodeB1.cellularNic.rlc.um rlcDelayDl:mean -nan
scalar MultiCell.eNodeB1.cellularNic.rlc.um rlcPduPacketLossUl:mean -nan
scalar MultiCell.eNodeB1.cellularNic.rlc.um rlcPduPacketLossDl:mean -nan
scalar MultiCell.eNodeB1.cellularNic.rlc.um rlcPacketLossUl:mean -nan
scalar MultiCell.eNodeB1.cellularNic.rlc.um rlcPacketLossUl:sum 0
scalar MultiCell.eNodeB1.cellularNic.rlc.um rlcPacketLossDl:mean -nan
scalar MultiCell.eNodeB1.cellularNic.rlc.um rlcPacketLossDl:sum 0
scalar MultiCell.eNodeB1.cellularNic.rlc.um rlcCellPacketLossUl:mean -nan
scalar MultiCell.eNodeB1.cellularNic.rlc.um rlcCellPacketLossDl:mean 0
scalar MultiCell.eNodeB1.cellularNic.rlc.um sentPacketToLowerLayer:count 555
scalar MultiCell.eNodeB1.cellularNic.rlc.um sentPacketToLowerLayer:sum(packetBytes) 39405
scalar MultiCell.eNodeB1.cellularNic.rlc.um sentPacketToUpperLayer:count 0
scalar MultiCell.eNodeB1.cellularNic.rlc.um sentPacketToUpperLayer:sum(packetBytes) 0
scalar MultiCell.eNodeB1.cellularNic.rlc.um receivedPacketFromLowerLayer:count 0
scalar MultiCell.eNodeB1.cellularNic.rlc.um receivedPacketFromLowerLayer:sum(packetBytes) 0
scalar MultiCell.eNodeB1.cellularNic.rlc.um receivedPacketFromUpperLayer:count 555
scalar MultiCell.eNodeB1.cellularNic.rlc.um receivedPacketFromUpperLayer:sum(packetBytes) 38295
scalar MultiCell.eNodeB1.cellularNic.rlc.am rlcPacketLossTotal:mean -nan
scalar MultiCell.eNodeB1.cellularNic.rlc.am rlcCellThroughputUl:mean -nan
scalar MultiCell.eNodeB1.cellularNic.rlc.am rlcCellThroughputDl:mean -nan
scalar MultiCell.eNodeB1.cellularNic.rlc.am rlcPduThroughputUl:mean -nan
scalar MultiCell.eNodeB1.cellularNic.rlc.am rlcPduThroughputDl:mean -nan
scalar MultiCell.eNodeB1.cellularNic.rlc.am rlcPduDelayUl:mean -nan
scalar MultiCell.eNodeB1.cellularNic.rlc.am rlcPduDelayDl:mean -nan
scalar MultiCell.eNodeB1.cellularNic.rlc.am rlcThroughputUl:mean -nan
scalar MultiCell.eNodeB1.cellularNic.rlc.am rlcThroughputDl:mean -nan
scalar MultiCell.eNodeB1.cellularNic.rlc.am rlcDelayUl:mean -nan
scalar MultiCell.eNodeB1.cellularNic.rlc.am rlcDelayDl:mean -nan
scalar MultiCell.eNodeB1.cellularNic.rlc.am rlcPduPacketLossUl:mean -nan
scalar MultiCell.eNodeB1.cellularNic.rlc.am rlcPduPacketLossDl:mean -nan
scalar MultiCell.eNodeB1.cellularNic.rlc.am rlcPacketLossUl:mean -nan
scalar MultiCell.eNodeB1.cellularNic.rlc.am rlcPacketLossDl:mean -nan
scalar MultiCell.eNodeB1.cellularNic.rlc.am rlcCellPacketLossUl:mean -nan
scalar MultiCell.eNodeB1.cellularNic.rlc.am rlcCellPacketLossDl:mean -nan
scalar MultiCell.eNodeB1.cellularNic.mac avgServedBlocksUl:mean 0
scalar MultiCell.eNodeB1.cellularNic.mac avgServedBlocksDl:mean 0.055500000000000001
scalar MultiCell.eNodeB1.cellularNic.mac harqTxAttemptsUl:mean -nan
scalar MultiCell.eNodeB1.cellularNic.mac harqTxAttemptsDl:mean -nan
scalar MultiCell.eNodeB1.cellularNic.mac harqErrorRate_4th_Ul:mean -nan
scalar MultiCell.eNodeB1.cellularNic.mac harqErrorRate_4th_Dl:mean -nan
scalar MultiCell.eNodeB1.cellularNic.mac harqErrorRate_3rd_Ul:mean -nan
scalar MultiCell.eNodeB1.cellularNic.mac harqErrorRate_3rd_Dl:mean -nan
scalar MultiCell.eNodeB1.cellularNic.mac harqErrorRate_2nd_Ul:mean -nan
scalar MultiCell.eNodeB1.cellularNic.mac harqErrorRate_2nd_Dl:mean -nan
scalar MultiCell.eNodeB1.cellularNic.mac harqErrorRate_1st_Ul:mean -nan
scalar MultiCell.eNodeB1.cellularNic.mac harqErrorRate_1st_Dl:mean -nan
scalar MultiCell.eNodeB1.cellularNic.mac harqErrorRateUl:mean -nan
scalar MultiCell.eNodeB1.cellularNic.mac harqErrorRateDl:mean -nan
scalar MultiCell.eNodeB1.cellularNic.mac macCellPacketLossUl:mean -nan
scalar MultiCell.eNodeB1.cellularNic.mac macCellPacketLossDl:mean 0
scalar MultiCell.eNodeB1.cellularNic.mac macPacketLossUl:mean -nan
scalar MultiCell.eNodeB1.cellularNic.mac macPacketLossDl:mean -nan
scalar MultiCell.eNodeB1.cellularNic.mac macThroughputUl:mean -nan
scalar MultiCell.eNodeB1.cellularNic.mac macThroughputDl:mean -nan
scalar MultiCell.eNodeB1.cellularNic.mac macDelayUl:mean -nan
scalar MultiCell.eNodeB1.cellularNic.mac macDelayDl:mean -nan
scalar MultiCell.eNodeB1.cellularNic.mac macCellThroughputUl:mean -nan
scalar MultiCell.eNodeB1.cellularNic.mac macCellThroughputDl:mean 10220.225344643408
scalar MultiCell.eNodeB1.cellularNic.mac sentPacketToLowerLayer:count 555
scalar MultiCell.eNodeB1.cellularNic.mac sentPacketToLowerLayer:sum(packetBytes) 40515
scalar MultiCell.eNodeB1.cellularNic.mac sentPacketToUpperLayer:count 555
scalar MultiCell.eNodeB1.cellularNic.mac sentPacketToUpperLayer:sum(packetBytes) 555
scalar MultiCell.eNodeB1.cellularNic.mac receivedPacketFromLowerLayer:count 3888
scalar MultiCell.eNodeB1.cellularNic.mac receivedPacketFromLowerLayer:sum(packetBytes) 3888
scalar MultiCell.eNodeB1.cellularNic.mac receivedPacketFromUpperLayer:count 1110
scalar MultiCell.eNodeB1.cellularNic.mac receivedPacketFromUpperLayer:sum(packetBytes) 78810
scalar MultiCell.eNodeB1.cellularNic.mac macBufferOverFlowD2D:mean -nan
scalar MultiCell.eNodeB1.cellularNic.mac macBufferOverFlowUl:mean -nan
scalar MultiCell.eNodeB1.cellularNic.mac macBufferOverFlowDl:mean -nan
scalar MultiCell.eNodeB1.cellularNic.channelModel[0] measuredSinrUl:mean -nan
scalar MultiCell.eNodeB1.cellularNic.channelModel[0] measuredSinrDl:mean -nan
scalar MultiCell.eNodeB1.cellularNic.channelModel[0] rcvdSinrD2D:mean -nan
scalar MultiCell.eNodeB1.cellularNic.channelModel[0] rcvdSinrUl:mean -nan
scalar MultiCell.eNodeB1.cellularNic.channelModel[0] rcvdSinrDl:mean -nan
scalar MultiCell.eNodeB1.cellularNic packetDropInterfaceDown:count 0
scalar MultiCell.eNodeB1.cellularNic packetDropInterfaceDown:sum(packetBytes) 0
scalar MultiCell.eNodeB1.cellularNic packetDropNoCarrier:count 0
scalar MultiCell.eNodeB1.cellularNic packetDropNoCarrier:sum(packetBytes) 0
scalar MultiCell.eNodeB1.pppIf.queue queueLength:last 0
scalar MultiCell.eNodeB1.pppIf.queue queueLength:max 0
scalar MultiCell.eNodeB1.pppIf.queue queueLength:timeavg 0
scalar MultiCell.eNodeB1.pppIf.queue queueBitLength:last 0
scalar MultiCell.eNodeB1.pppIf.queue queueBitLength:max 0
scalar MultiCell.eNodeB1.pppIf.queue queueBitLength:timeavg 0
scalar MultiCell.eNodeB1.pppIf.queue outgoingPackets:count 0
scalar MultiCell.eNodeB1.pppIf.queue outgoingPacketLengths:sum 0
scalar MultiCell.eNodeB1.pppIf.queue incomingPackets:count 0
scalar MultiCell.eNodeB1.pppIf.queue incomingPacketLengths:sum 0
scalar MultiCell.eNodeB1.pppIf.queue droppedPacketsQueueOverflow:count 0
scalar MultiCell.eNodeB1.pppIf.queue droppedPacketLengthsQueueOverflow:sum 0
scalar MultiCell.eNodeB1.pppIf.ppp transmissionState:timeavg 0
scalar MultiCell.eNodeB1.pppIf.ppp rxPkOk:count 555
scalar MultiCell.eNodeB1.pppIf.ppp rxPkOk:sum(packetBytes) 61605
scalar MultiCell.eNodeB1.pppIf.ppp txPk:count 0
scalar MultiCell.eNodeB1.pppIf.ppp txPk:sum(packetBytes) 0
scalar MultiCell.eNodeB1.pppIf.ppp rcvdPkFromHl:count 0
scalar MultiCell.eNodeB1.pppIf.ppp rcvdPkFromHl:sum(packetBytes) 0
scalar MultiCell.eNodeB1.pppIf.ppp passedUpPk:count 555
scalar MultiCell.eNodeB1.pppIf.ppp passedUpPk:sum(packetBytes) 57720
scalar MultiCell.eNodeB1.pppIf.ppp packetDropIncorrectlyReceived:count 0
scalar MultiCell.eNodeB1.pppIf.ppp packetDropIncorrectlyReceived:sum(packetBytes) 0
scalar MultiCell.eNodeB1.pppIf.ppp packetDropInterfaceDown:count 0
scalar MultiCell.eNodeB1.pppIf.ppp packetDropInterfaceDown:sum(packetBytes) 0
scalar MultiCell.eNodeB1.pppIf packetDropInterfaceDown:count 0
scalar MultiCell.eNodeB1.pppIf packetDropInterfaceDown:sum(packetBytes) 0
scalar MultiCell.eNodeB1.pppIf packetDropNoCarrier:count 0
scalar MultiCell.eNodeB1.pppIf packetDropNoCarrier:sum(packetBytes) 0
scalar MultiCell.eNodeB1.x2ppp[0].queue queueLength:last 0
scalar MultiCell.eNodeB1.x2ppp[0].queue queueLength:max 0
scalar MultiCell.eNodeB1.x2ppp[0].queue queueLength:timeavg 0
scalar MultiCell.eNodeB1.x2ppp[0].queue queueBitLength:last 0
scalar MultiCell.eNodeB1.x2ppp[0].queue queueBitLength:max 0
scalar MultiCell.eNodeB1.x2ppp[0].queue queueBitLength:timeavg 0
scalar MultiCell.eNodeB1.x2ppp[0].queue outgoingPackets:count 0
scalar MultiCell.eNodeB1.x2ppp[0].queue outgoingPacketLengths:sum 0
scalar MultiCell.eNodeB1.x2ppp[0].queue incomingPackets:count 0
scalar MultiCell.eNodeB1.x2ppp[0].queue incomingPacketLengths:sum 0
scalar MultiCell.eNodeB1.x2ppp[0].queue droppedPacketsQueueOverflow:count 0
scalar MultiCell.eNodeB1.x2ppp[0].queue droppedPacketLengthsQueueOverflow:sum 0
scalar MultiCell.eNodeB1.x2ppp[0].ppp transmissionState:timeavg 0
scalar MultiCell.eNodeB1.x2ppp[0].ppp rxPkOk:count 0
scalar MultiCell.eNodeB1.x2ppp[0].ppp rxPkOk:sum(packetBytes) 0
scalar MultiCell.eNodeB1.x2ppp[0].ppp txPk:count 0
scalar MultiCell.eNodeB1.x2ppp[0].ppp txPk:sum(packetBytes) 0
scalar MultiCell.eNodeB1.x2ppp[0].ppp rcvdPkFromHl:count 0
scalar MultiCell.eNodeB1.x2ppp[0].ppp rcvdPkFromHl:sum(packetBytes) 0
scalar MultiCell.eNodeB1.x2ppp[0].ppp passedUpPk:count 0
scalar MultiCell.eNodeB1.x2ppp[0].ppp passedUpPk:sum(packetBytes) 0
scalar MultiCell.eNodeB1.x2ppp[0].ppp packetDropIncorrectlyReceived:count 0
scalar MultiCell.eNodeB1.x2ppp[0].ppp packetDropIncorrectlyReceived:sum(packetBytes) 0
scalar MultiCell.eNodeB1.x2ppp[0].ppp packetDropInterfaceDown:count 0
scalar MultiCell.eNodeB1.x2ppp[0].ppp packetDropInterfaceDown:sum(packetBytes) 0
scalar MultiCell.eNodeB1.x2ppp[0] packetDropInterfaceDown:count 0
scalar MultiCell.eNodeB1.x2ppp[0] packetDropInterfaceDown:sum(packetBytes) 0
scalar MultiCell.eNodeB1.x2ppp[0] packetDropNoCarrier:count 0
scalar MultiCell.eNodeB1.x2ppp[0] packetDropNoCarrier:sum(packetBytes) 0
scalar MultiCell.eNodeB1.pppMEHostIf.queue queueLength:last 0
scalar MultiCell.eNodeB1.pppMEHostIf.queue queueLength:max 0
scalar MultiCell.eNodeB1.pppMEHostIf.queue queueLength:timeavg 0
scalar MultiCell.eNodeB1.pppMEHostIf.queue queueBitLength:last 0
scalar MultiCell.eNodeB1.pppMEHostIf.queue queueBitLength:max 0
scalar MultiCell.eNodeB1.pppMEHostIf.queue queueBitLength:timeavg 0
scalar MultiCell.eNodeB1.pppMEHostIf.queue outgoingPackets:count 0
scalar MultiCell.eNodeB1.pppMEHostIf.queue outgoingPacketLengths:sum 0
scalar MultiCell.eNodeB1.pppMEHostIf.queue incomingPackets:count 0
scalar MultiCell.eNodeB1.pppMEHostIf.queue incomingPacketLengths:sum 0
scalar MultiCell.eNodeB1.pppMEHostIf.queue droppedPacketsQueueOverflow:count 0
scalar MultiCell.eNodeB1.pppMEHostIf.queue droppedPacketLengthsQueueOverflow:sum 0
scalar MultiCell.eNodeB1.pppMEHostIf.ppp transmissionState:timeavg 0
scalar MultiCell.eNodeB1.pppMEHostIf.ppp rxPkOk:count 0
scalar MultiCell.eNodeB1.pppMEHostIf.ppp rxPkOk:sum(packetBytes) 0
scalar MultiCell.eNodeB1.pppMEHostIf.ppp txPk:count 0
scalar MultiCell.eNodeB1.pppMEHostIf.ppp txPk:sum(packetBytes) 0
scalar MultiCell.eNodeB1.pppMEHostIf.ppp rcvdPkFromHl:count 0
scalar MultiCell.eNodeB1.pppMEHostIf.ppp rcvdPkFromHl:sum(packetBytes) 0
scalar MultiCell.eNodeB1.pppMEHostIf.ppp passedUpPk:count 0
scalar MultiCell.eNodeB1.pppMEHostIf.ppp passedUpPk:sum(packetBytes) 0
scalar MultiCell.eNodeB1.pppMEHostIf.ppp packetDropIncorrectlyReceived:count 0
scalar MultiCell.eNodeB1.pppMEHostIf.ppp packetDropIncorrectlyReceived:sum(packetBytes) 0
scalar MultiCell.eNodeB1.pppMEHostIf.ppp packetDropInterfaceDown:count 0
scalar MultiCell.eNodeB1.pppMEHostIf.ppp packetDropInterfaceDown:sum(packetBytes) 0
scalar MultiCell.eNodeB1.pppMEHostIf packetDropInterfaceDown:count 0
scalar MultiCell.eNodeB1.pppMEHostIf packetDropInterfaceDown:sum(packetBytes) 0
scalar MultiCell.eNodeB1.pppMEHostIf packetDropNoCarrier:count 0
scalar MultiCell.eNodeB1.pppMEHostIf packetDropNoCarrier:sum(packetBytes) 0
scalar MultiCell.eNodeB1.ipv4.ip packetDropAddressResolutionFailed:count 0
scalar MultiCell.eNodeB1.ipv4.ip packetDropAddressResolutionFailed:sum(packetBytes) 0
scalar MultiCell.eNodeB1.ipv4.ip packetDropHopLimitReached:count 0
scalar MultiCell.eNodeB1.ipv4.ip packetDropHopLimitReached:sum(packetBytes) 0
scalar MultiCell.eNodeB1.ipv4.ip packetDropForwardingDisabled:count 0
scalar MultiCell.eNodeB1.ipv4.ip packetDropForwardingDisabled:sum(packetBytes) 0
scalar MultiCell.eNodeB1.ipv4.ip packetDropNoInterfaceFound:count 0
scalar MultiCell.eNodeB1.ipv4.ip packetDropNoInterfaceFound:sum(packetBytes) 0
scalar MultiCell.eNodeB1.ipv4.ip packetDropNoRouteFound:count 0
scalar MultiCell.eNodeB1.ipv4.ip packetDropNoRouteFound:sum(packetBytes) 0
scalar MultiCell.eNodeB1.ipv4.ip packetDropUndefined:count 0
scalar MultiCell.eNodeB1.ipv4.ip packetDropUndefined:sum(packetBytes) 0
scalar MultiCell.eNodeB1.ipv4.arp arpResolutionFailed:count 0
scalar MultiCell.eNodeB1.ipv4.arp arpResolutionCompleted:count 0
scalar MultiCell.eNodeB1.ipv4.arp arpResolutionInitiated:count 0
scalar MultiCell.eNodeB1.ipv4.arp arpReplySent:count 0
scalar MultiCell.eNodeB1.ipv4.arp arpReplySent:sum(packetBytes) 0
scalar MultiCell.eNodeB1.ipv4.arp arpRequestSent:count 0
scalar MultiCell.eNodeB1.ipv4.arp arpRequestSent:sum(packetBytes) 0
scalar MultiCell.eNodeB1.udp packetReceived:count 555
scalar MultiCell.eNodeB1.udp packetReceived:sum(packetBytes) 46620
scalar MultiCell.eNodeB1.udp packetSent:count 0
scalar MultiCell.eNodeB1.udp packetSent:sum(packetBytes) 0
scalar MultiCell.eNodeB1.udp passedUpPk:count 555
scalar MultiCell.eNodeB1.udp droppedPkWrongPort:count 0
scalar MultiCell.eNodeB1.udp droppedPkBadChecksum:count 0
scalar MultiCell.eNodeB2.cellularNic.pdcp sentPacketToLowerLayer:count 704
scalar MultiCell.eNodeB2.cellularNic.pdcp sentPacketToLowerLayer:sum(packetBytes) 48576
scalar MultiCell.eNodeB2.cellularNic.pdcp sentPacketToUpperLayer:count 0
scalar MultiCell.eNodeB2.cellularNic.pdcp sentPacketToUpperLayer:sum(packetBytes) 0
scalar MultiCell.eNodeB2.cellularNic.pdcp receivedPacketFromLowerLayer:count 0
scalar MultiCell.eNodeB2.cellularNic.pdcp receivedPacketFromLowerLayer:sum(packetBytes) 0
scalar MultiCell.eNodeB2.cellularNic.pdcp receivedPacketFromUpperLayer:count 704
scalar MultiCell.eNodeB2.cellularNic.pdcp receivedPacketFromUpperLayer:sum(packetBytes) 47872
scalar MultiCell.eNodeB2.cellularNic.rlc.tm rlcPacketLossUl:mean -nan
scalar MultiCell.eNodeB2.cellularNic.rlc.tm rlcPacketLossUl:sum 0
scalar MultiCell.eNodeB2.cellularNic.rlc.tm rlcPacketLossDl:mean -nan
scalar MultiCell.eNodeB2.cellularNic.rlc.tm rlcPacketLossDl:sum 0
scalar MultiCell.eNodeB2.cellularNic.rlc.tm sentPacketToLowerLayer:count 0
scalar MultiCell.eNodeB2.cellularNic.rlc.tm sentPacketToLowerLayer:sum(packetBytes) 0
scalar MultiCell.eNodeB2.cellularNic.rlc.tm sentPacketToUpperLayer:count 0
scalar MultiCell.eNodeB2.cellularNic.rlc.tm sentPacketToUpperLayer:sum(packetBytes) 0
scalar MultiCell.eNodeB2.cellularNic.rlc.tm receivedPacketFromLowerLayer:count 0
scalar MultiCell.eNodeB2.cellularNic.rlc.tm receivedPacketFromLowerLayer:sum(packetBytes) 0
scalar MultiCell.eNodeB2.cellularNic.rlc.tm receivedPacketFromUpperLayer:count 0
scalar MultiCell.eNodeB2.cellularNic.rlc.tm receivedPacketFromUpperLayer:sum(packetBytes) 0
scalar MultiCell.eNodeB2.cellularNic.rlc.um rlcPacketLossTotal:mean -nan
scalar MultiCell.eNodeB2.cellularNic.rlc.um rlcCellThroughputUl:mean -nan
scalar MultiCell.eNodeB2.cellularNic.rlc.um rlcCellThroughputDl:mean 9980.8369346984218
scalar MultiCell.eNodeB2.cellularNic.rlc.um rlcPduThroughputUl:mean -nan
scalar MultiCell.eNodeB2.cellularNic.rlc.um rlcPduThroughputDl:mean -nan
scalar MultiCell.eNodeB2.cellularNic.rlc.um rlcPduDelayUl:mean -nan
scalar MultiCell.eNodeB2.cellularNic.rlc.um rlcPduDelayDl:mean -nan
scalar MultiCell.eNodeB2.cellularNic.rlc.um rlcThroughputUl:mean -nan
scalar MultiCell.eNodeB2.cellularNic.rlc.um rlcThroughputDl:mean -nan
scalar MultiCell.eNodeB2.cellularNic.rlc.um rlcDelayUl:mean -nan
scalar MultiCell.eNodeB2.cellularNic.rlc.um rlcDelayDl:mean -nan
scalar MultiCell.eNodeB2.cellularNic.rlc.um rlcPduPacketLossUl:mean -nan
scalar MultiCell.eNodeB2.cellularNic.rlc.um rlcPduPacketLossDl:mean -nan
scalar MultiCell.eNodeB2.cellularNic.rlc.um rlcPacketLossUl:mean -nan
scalar MultiCell.eNodeB2.cellularNic.rlc.um rlcPacketLossUl:sum 0
scalar MultiCell.eNodeB2.cellularNic.rlc.um rlcPacketLossDl:mean -nan
scalar MultiCell.eNodeB2.cellularNic.rlc.um rlcPacketLossDl:sum 0
scalar MultiCell.eNodeB2.cellularNic.rlc.um rlcCellPacketLossUl:mean -nan
scalar MultiCell.eNodeB2.cellularNic.rlc.um rlcCellPacketLossDl:mean 0
scalar MultiCell.eNodeB2.cellularNic.rlc.um sentPacketToLowerLayer:count 704
scalar MultiCell.eNodeB2.cellularNic.rlc.um sentPacketToLowerLayer:sum(packetBytes) 49984
scalar MultiCell.eNodeB2.cellularNic.rlc.um sentPacketToUpperLayer:count 0
scalar MultiCell.eNodeB2.cellularNic.rlc.um sentPacketToUpperLayer:sum(packetBytes) 0
scalar MultiCell.eNodeB2.cellularNic.rlc.um receivedPacketFromLowerLayer:count 0
scalar MultiCell.eNodeB2.cellularNic.rlc.um receivedPacketFromLowerLayer:sum(packetBytes) 0
scalar MultiCell.eNodeB2.cellularNic.rlc.um receivedPacketFromUpperLayer:count 704
scalar MultiCell.eNodeB2.cellularNic.rlc.um receivedPacketFromUpperLayer:sum(packetBytes) 48576
scalar MultiCell.eNodeB2.cellularNic.rlc.am rlcPacketLossTotal:mean -nan
scalar MultiCell.eNodeB2.cellularNic.rlc.am rlcCellThroughputUl:mean -nan
scalar MultiCell.eNodeB2.cellularNic.rlc.am rlcCellThroughputDl:mean -nan
scalar MultiCell.eNodeB2.cellularNic.rlc.am rlcPduThroughputUl:mean -nan
scalar MultiCell.eNodeB2.cellularNic.rlc.am rlcPduThroughputDl:mean -nan
scalar MultiCell.eNodeB2.cellularNic.rlc.am rlcPduDelayUl:mean -nan
scalar MultiCell.eNodeB2.cellularNic.rlc.am rlcPduDelayDl:mean -nan
scalar MultiCell.eNodeB2.cellularNic.rlc.am rlcThroughputUl:mean -nan
scalar MultiCell.eNodeB2.cellularNic.rlc.am rlcThroughputDl:mean -nan
scalar MultiCell.eNodeB2.cellularNic.rlc.am rlcDelayUl:mean -nan
scalar MultiCell.eNodeB2.cellularNic.rlc.am rlcDelayDl:mean -nan
scalar MultiCell.eNodeB2.cellularNic.rlc.am rlcPduPacketLossUl:mean -nan
scalar MultiCell.eNodeB2.cellularNic.rlc.am rlcPduPacketLossDl:mean -nan
scalar MultiCell.eNodeB2.cellularNic.rlc.am rlcPacketLossUl:mean -nan
scalar MultiCell.eNodeB2.cellularNic.rlc.am rlcPacketLossDl:mean -nan
scalar MultiCell.eNodeB2.cellularNic.rlc.am rlcCellPacketLossUl:mean -nan
scalar MultiCell.eNodeB2.cellularNic.rlc.am rlcCellPacketLossDl:mean -nan
scalar MultiCell.eNodeB2.cellularNic.mac avgServedBlocksUl:mean 0
scalar MultiCell.eNodeB2.cellularNic.mac avgServedBlocksDl:mean 0.070400000000000004
scalar MultiCell.eNodeB2.cellularNic.mac harqTxAttemptsUl:mean -nan
scalar MultiCell.eNodeB2.cellularNic.mac harqTxAttemptsDl:mean -nan
scalar MultiCell.eNodeB2.cellularNic.mac harqErrorRate_4th_Ul:mean -nan
scalar MultiCell.eNodeB2.cellularNic.mac harqErrorRate_4th_Dl:mean -nan
scalar MultiCell.eNodeB2.cellularNic.mac harqErrorRate_3rd_Ul:mean -nan
scalar MultiCell.eNodeB2.cellularNic.mac harqErrorRate_3rd_Dl:mean -nan
scalar MultiCell.eNodeB2.cellularNic.mac harqErrorRate_2nd_Ul:mean -nan
scalar MultiCell.eNodeB2.cellularNic.mac harqErrorRate_2nd_Dl:mean -nan
scalar MultiCell.eNodeB2.cellularNic.mac harqErrorRate_1st_Ul:mean -nan
scalar MultiCell.eNodeB2.cellularNic.mac harqErrorRate_1st_Dl:mean -nan
scalar MultiCell.eNodeB2.cellularNic.mac harqErrorRateUl:mean -nan
scalar MultiCell.eNodeB2.cellularNic.mac harqErrorRateDl:mean -nan
scalar MultiCell.eNodeB2.cellularNic.mac macCellPacketLossUl:mean -nan
scalar MultiCell.eNodeB2.cellularNic.mac macCellPacketLossDl:mean 0
scalar MultiCell.eNodeB2.cellularNic.mac macPacketLossUl:mean -nan
scalar MultiCell.eNodeB2.cellularNic.mac macPacketLossDl:mean -nan
scalar MultiCell.eNodeB2.cellularNic.mac macThroughputUl:mean -nan
scalar MultiCell.eNodeB2.cellularNic.mac macThroughputDl:mean -nan
scalar MultiCell.eNodeB2.cellularNic.mac macDelayUl:mean -nan
scalar MultiCell.eNodeB2.cellularNic.mac macDelayDl:mean -nan
scalar MultiCell.eNodeB2.cellularNic.mac macCellThroughputUl:mean -nan
scalar MultiCell.eNodeB2.cellularNic.mac macCellThroughputDl:mean 10559.436177289657
scalar MultiCell.eNodeB2.cellularNic.mac sentPacketToLowerLayer:count 704
scalar MultiCell.eNodeB2.cellularNic.mac sentPacketToLowerLayer:sum(packetBytes) 51392
scalar MultiCell.eNodeB2.cellularNic.mac sentPacketToUpperLayer:count 704
scalar MultiCell.eNodeB2.cellularNic.mac sentPacketToUpperLayer:sum(packetBytes) 704
scalar MultiCell.eNodeB2.cellularNic.mac receivedPacketFromLowerLayer:count 4037
scalar MultiCell.eNodeB2.cellularNic.mac receivedPacketFromLowerLayer:sum(packetBytes) 4037
scalar MultiCell.eNodeB2.cellularNic.mac receivedPacketFromUpperLayer:count 1408
scalar MultiCell.eNodeB2.cellularNic.mac receivedPacketFromUpperLayer:sum(packetBytes) 99968
scalar MultiCell.eNodeB2.cellularNic.mac macBufferOverFlowD2D:mean -nan
scalar MultiCell.eNodeB2.cellularNic.mac macBufferOverFlowUl:mean -nan
scalar MultiCell.eNodeB2.cellularNic.mac macBufferOverFlowDl:mean -nan
scalar MultiCell.eNodeB2.cellularNic.channelModel[0] measuredSinrUl:mean -nan
scalar MultiCell.eNodeB2.cellularNic.channelModel[0] measuredSinrDl:mean -nan
scalar MultiCell.eNodeB2.cellularNic.channelModel[0] rcvdSinrD2D:mean -nan
scalar MultiCell.eNodeB2.cellularNic.channelModel[0] rcvdSinrUl:mean -nan
scalar MultiCell.eNodeB2.cellularNic.channelModel[0] rcvdSinrDl:mean -nan
scalar MultiCell.eNodeB2.cellularNic packetDropInterfaceDown:count 0
scalar MultiCell.eNodeB2.cellularNic packetDropInterfaceDown:sum(packetBytes) 0
scalar MultiCell.eNodeB2.cellularNic packetDropNoCarrier:count 0
scalar MultiCell.eNodeB2.cellularNic packetDropNoCarrier:sum(packetBytes) 0
scalar MultiCell.eNodeB2.pppIf.queue queueLength:last 0
scalar MultiCell.eNodeB2.pppIf.queue queueLength:max 0
scalar MultiCell.eNodeB2.pppIf.queue queueLength:timeavg 0
scalar MultiCell.eNodeB2.pppIf.queue queueBitLength:last 0
scalar MultiCell.eNodeB2.pppIf.queue queueBitLength:max 0
scalar MultiCell.eNodeB2.pppIf.queue queueBitLength:timeavg 0
scalar MultiCell.eNodeB2.pppIf.queue outgoingPackets:count 0
scalar MultiCell.eNodeB2.pppIf.queue outgoingPacketLengths:sum 0
scalar MultiCell.eNodeB2.pppIf.queue incomingPackets:count 0
scalar MultiCell.eNodeB2.pppIf.queue incomingPacketLengths:sum 0
scalar MultiCell.eNodeB2.pppIf.queue droppedPacketsQueueOverflow:count 0
scalar MultiCell.eNodeB2.pppIf.queue droppedPacketLengthsQueueOverflow:sum 0
scalar MultiCell.eNodeB2.pppIf.ppp transmissionState:timeavg 0
scalar MultiCell.eNodeB2.pppIf.ppp rxPkOk:count 704
scalar MultiCell.eNodeB2.pppIf.ppp rxPkOk:sum(packetBytes) 78144
scalar MultiCell.eNodeB2.pppIf.ppp txPk:count 0
scalar MultiCell.eNodeB2.pppIf.ppp txPk:sum(packetBytes) 0
scalar MultiCell.eNodeB2.pppIf.ppp rcvdPkFromHl:count 0
scalar MultiCell.eNodeB2.pppIf.ppp rcvdPkFromHl:sum(packetBytes) 0
scalar MultiCell.eNodeB2.pppIf.ppp passedUpPk:count 704
scalar MultiCell.eNodeB2.pppIf.ppp passedUpPk:sum(packetBytes) 73216
scalar MultiCell.eNodeB2.pppIf.ppp packetDropIncorrectlyReceived:count 0
scalar MultiCell.eNodeB2.pppIf.ppp packetDropIncorrectlyReceived:sum(packetBytes) 0
scalar MultiCell.eNodeB2.pppIf.ppp packetDropInterfaceDown:count 0
scalar MultiCell.eNodeB2.pppIf.ppp packetDropInterfaceDown:sum(packetBytes) 0
scalar MultiCell.eNodeB2.pppIf packetDropInterfaceDown:count 0
scalar MultiCell.eNodeB2.pppIf packetDropInterfaceDown:sum(packetBytes) 0
scalar MultiCell.eNodeB2.pppIf packetDropNoCarrier:count 0
scalar MultiCell.eNodeB2.pppIf packetDropNoCarrier:sum(packetBytes) 0
scalar MultiCell.eNodeB2.x2ppp[0].queue queueLength:last 0
scalar MultiCell.eNodeB2.x2ppp[0].queue queueLength:max 0
scalar MultiCell.eNodeB2.x2ppp[0].queue queueLength:timeavg 0
scalar MultiCell.eNodeB2.x2ppp[0].queue queueBitLength:last 0
scalar MultiCell.eNodeB2.x2ppp[0].queue queueBitLength:max 0
scalar MultiCell.eNodeB2.x2ppp[0].queue queueBitLength:timeavg 0
scalar MultiCell.eNodeB2.x2ppp[0].queue outgoingPackets:count 0
scalar MultiCell.eNodeB2.x2ppp[0].queue outgoingPacketLengths:sum 0
scalar MultiCell.eNodeB2.x2ppp[0].queue incomingPackets:count 0
scalar MultiCell.eNodeB2.x2ppp[0].queue incomingPacketLengths:sum 0
scalar MultiCell.eNodeB2.x2ppp[0].queue droppedPacketsQueueOverflow:count 0
scalar MultiCell.eNodeB2.x2ppp[0].queue droppedPacketLengthsQueueOverflow:sum 0
scalar MultiCell.eNodeB2.x2ppp[0].ppp transmissionState:timeavg 0
scalar MultiCell.eNodeB2.x2ppp[0].ppp rxPkOk:count 0
scalar MultiCell.eNodeB2.x2ppp[0].ppp rxPkOk:sum(packetBytes) 0
scalar MultiCell.eNodeB2.x2ppp[0].ppp txPk:count 0
scalar MultiCell.eNodeB2.x2ppp[0].ppp txPk:sum(packetBytes) 0
scalar MultiCell.eNodeB2.x2ppp[0].ppp rcvdPkFromHl:count 0
scalar MultiCell.eNodeB2.x2ppp[0].ppp rcvdPkFromHl:sum(packetBytes) 0
scalar MultiCell.eNodeB2.x2ppp[0].ppp passedUpPk:count 0
scalar MultiCell.eNodeB2.x2ppp[0].ppp passedUpPk:sum(packetBytes) 0
scalar MultiCell.eNodeB2.x2ppp[0].ppp packetDropIncorrectlyReceived:count 0
scalar MultiCell.eNodeB2.x2ppp[0].ppp packetDropIncorrectlyReceived:sum(packetBytes) 0
scalar MultiCell.eNodeB2.x2ppp[0].ppp packetDropInterfaceDown:count 0
scalar MultiCell.eNodeB2.x2ppp[0].ppp packetDropInterfaceDown:sum(packetBytes) 0
scalar MultiCell.eNodeB2.x2ppp[0] packetDropInterfaceDown:count 0
scalar MultiCell.eNodeB2.x2ppp[0] packetDropInterfaceDown:sum(packetBytes) 0
scalar MultiCell.eNodeB2.x2ppp[0] packetDropNoCarrier:count 0
scalar MultiCell.eNodeB2.x2ppp[0] packetDropNoCarrier:sum(packetBytes) 0
scalar MultiCell.eNodeB2.pppMEHostIf.queue queueLength:last 0
scalar MultiCell.eNodeB2.pppMEHostIf.queue queueLength:max 0
scalar MultiCell.eNodeB2.pppMEHostIf.queue queueLength:timeavg 0
scalar MultiCell.eNodeB2.pppMEHostIf.queue queueBitLength:last 0
scalar MultiCell.eNodeB2.pppMEHostIf.queue queueBitLength:max 0
scalar MultiCell.eNodeB2.pppMEHostIf.queue queueBitLength:timeavg 0
scalar MultiCell.eNodeB2.pppMEHostIf.queue outgoingPackets:count 0
scalar MultiCell.eNodeB2.pppMEHostIf.queue outgoingPacketLengths:sum 0
scalar MultiCell.eNodeB2.pppMEHostIf.queue incomingPackets:count 0
scalar MultiCell.eNodeB2.pppMEHostIf.queue incomingPacketLengths:sum 0
scalar MultiCell.eNodeB2.pppMEHostIf.queue droppedPacketsQueueOverflow:count 0
scalar MultiCell.eNodeB2.pppMEHostIf.queue droppedPacketLengthsQueueOverflow:sum 0
scalar MultiCell.eNodeB2.pppMEHostIf.ppp transmissionState:timeavg 0
scalar MultiCell.eNodeB2.pppMEHostIf.ppp rxPkOk:count 0
scalar MultiCell.eNodeB2.pppMEHostIf.ppp rxPkOk:sum(packetBytes) 0
scalar MultiCell.eNodeB2.pppMEHostIf.ppp txPk:count 0
scalar MultiCell.eNodeB2.pppMEHostIf.ppp txPk:sum(packetBytes) 0
scalar MultiCell.eNodeB2.pppMEHostIf.ppp rcvdPkFromHl:count 0
scalar MultiCell.eNodeB2.pppMEHostIf.ppp rcvdPkFromHl:sum(packetBytes) 0
scalar MultiCell.eNodeB2.pppMEHostIf.ppp passedUpPk:count 0
scalar MultiCell.eNodeB2.pppMEHostIf.ppp passedUpPk:sum(packetBytes) 0
scalar MultiCell.eNodeB2.pppMEHostIf.ppp packetDropIncorrectlyReceived:count 0
scalar MultiCell.eNodeB2.pppMEHostIf.ppp packetDropIncorrectlyReceived:sum(packetBytes) 0
scalar MultiCell.eNodeB2.pppMEHostIf.ppp packetDropInterfaceDown:count 0
scalar MultiCell.eNodeB2.pppMEHostIf.ppp packetDropInterfaceDown:sum(packetBytes) 0
scalar MultiCell.eNodeB2.pppMEHostIf packetDropInterfaceDown:count 0
scalar MultiCell.eNodeB2.pppMEHostIf packetDropInterfaceDown:sum(packetBytes) 0
scalar MultiCell.eNodeB2.pppMEHostIf packetDropNoCarrier:count 0
scalar MultiCell.eNodeB2.pppMEHostIf packetDropNoCarrier:sum(packetBytes) 0
scalar MultiCell.eNodeB2.ipv4.ip packetDropAddressResolutionFailed:count 0
scalar MultiCell.eNodeB2.ipv4.ip packetDropAddressResolutionFailed:sum(packetBytes) 0
scalar MultiCell.eNodeB2.ipv4.ip packetDropHopLimitReached:count 0
scalar MultiCell.eNodeB2.ipv4.ip packetDropHopLimitReached:sum(packetBytes) 0
scalar MultiCell.eNodeB2.ipv4.ip packetDropForwardingDisabled:count 0
scalar MultiCell.eNodeB2.ipv4.ip packetDropForwardingDisabled:sum(packetBytes) 0
scalar MultiCell.eNodeB2.ipv4.ip packetDropNoInterfaceFound:count 0
scalar MultiCell.eNodeB2.ipv4.ip packetDropNoInterfaceFound:sum(packetBytes) 0
scalar MultiCell.eNodeB2.ipv4.ip packetDropNoRouteFound:count 0
scalar MultiCell.eNodeB2.ipv4.ip packetDropNoRouteFound:sum(packetBytes) 0
scalar MultiCell.eNodeB2.ipv4.ip packetDropUndefined:count 0
scalar MultiCell.eNodeB2.ipv4.ip packetDropUndefined:sum(packetBytes) 0
scalar MultiCell.eNodeB2.ipv4.arp arpResolutionFailed:count 0
scalar MultiCell.eNodeB2.ipv4.arp arpResolutionCompleted:count 0
scalar MultiCell.eNodeB2.ipv4.arp arpResolutionInitiated:count 0
scalar MultiCell.eNodeB2.ipv4.arp arpReplySent:count 0
scalar MultiCell.eNodeB2.ipv4.arp arpReplySent:sum(packetBytes) 0
scalar MultiCell.eNodeB2.ipv4.arp arpRequestSent:count 0
scalar MultiCell.eNodeB2.ipv4.arp arpRequestSent:sum(packetBytes) 0
scalar MultiCell.eNodeB2.udp packetReceived:count 704
scalar MultiCell.eNodeB2.udp packetReceived:sum(packetBytes) 59136
scalar MultiCell.eNodeB2.udp packetSent:count 0
scalar MultiCell.eNodeB2.udp packetSent:sum(packetBytes) 0
scalar MultiCell.eNodeB2.udp passedUpPk:count 704
scalar MultiCell.eNodeB2.udp droppedPkWrongPort:count 0
scalar MultiCell.eNodeB2.udp droppedPkBadChecksum:count 0
scalar MultiCell.ue11.lo[0].lo rcvdPkFromHl:count 0
scalar MultiCell.ue11.lo[0].lo rcvdPkFromHl:sum(packetBytes) 0
scalar MultiCell.ue11.lo[0].lo passedUpPk:count 0
scalar MultiCell.ue11.lo[0].lo passedUpPk:sum(packetBytes) 0
scalar MultiCell.ue11.lo[0] packetDropInterfaceDown:count 0
scalar MultiCell.ue11.lo[0] packetDropInterfaceDown:sum(packetBytes) 0
scalar MultiCell.ue11.lo[0] packetDropNoCarrier:count 0
scalar MultiCell.ue11.lo[0] packetDropNoCarrier:sum(packetBytes) 0
scalar MultiCell.ue11.cellularNic.pdcp sentPacketToLowerLayer:count 0
scalar MultiCell.ue11.cellularNic.pdcp sentPacketToLowerLayer:sum(packetBytes) 0
scalar MultiCell.ue11.cellularNic.pdcp sentPacketToUpperLayer:count 357
scalar MultiCell.ue11.cellularNic.pdcp sentPacketToUpperLayer:sum(packetBytes) 24276
scalar MultiCell.ue11.cellularNic.pdcp receivedPacketFromLowerLayer:count 357
scalar MultiCell.ue11.cellularNic.pdcp receivedPacketFromLowerLayer:sum(packetBytes) 24633
scalar MultiCell.ue11.cellularNic.pdcp receivedPacketFromUpperLayer:count 0
scalar MultiCell.ue11.cellularNic.pdcp receivedPacketFromUpperLayer:sum(packetBytes) 0
scalar MultiCell.ue11.cellularNic.rlc.tm rlcPacketLossUl:mean -nan
scalar MultiCell.ue11.cellularNic.rlc.tm rlcPacketLossUl:sum 0
scalar MultiCell.ue11.cellularNic.rlc.tm rlcPacketLossDl:mean -nan
scalar MultiCell.ue11.cellularNic.rlc.tm rlcPacketLossDl:sum 0
scalar MultiCell.ue11.cellularNic.rlc.tm sentPacketToLowerLayer:count 0
scalar MultiCell.ue11.cellularNic.rlc.tm sentPacketToLowerLayer:sum(packetBytes) 0
scalar MultiCell.ue11.cellularNic.rlc.tm sentPacketToUpperLayer:count 0
scalar MultiCell.ue11.cellularNic.rlc.tm sentPacketToUpperLayer:sum(packetBytes) 0
scalar MultiCell.ue11.cellularNic.rlc.tm receivedPacketFromLowerLayer:count 0
scalar MultiCell.ue11.cellularNic.rlc.tm receivedPacketFromLowerLayer:sum(packetBytes) 0
scalar MultiCell.ue11.cellularNic.rlc.tm receivedPacketFromUpperLayer:count 0
scalar MultiCell.ue11.cellularNic.rlc.tm receivedPacketFromUpperLayer:sum(packetBytes) 0
scalar MultiCell.ue11.cellularNic.rlc.um rlcPacketLossTotal:mean 0
scalar MultiCell.ue11.cellularNic.rlc.um rlcCellThroughputUl:mean -nan
scalar MultiCell.ue11.cellularNic.rlc.um rlcCellThroughputDl:mean -nan
scalar MultiCell.ue11.cellularNic.rlc.um rlcPduThroughputUl:mean -nan
scalar MultiCell.ue11.cellularNic.rlc.um rlcPduThroughputDl:mean 0
scalar MultiCell.ue11.cellularNic.rlc.um rlcPduDelayUl:mean -nan
scalar MultiCell.ue11.cellularNic.rlc.um rlcPduDelayDl:mean 0.0040000000000000027
scalar MultiCell.ue11.cellularNic.rlc.um rlcThroughputUl:mean -nan
scalar MultiCell.ue11.cellularNic.rlc.um rlcThroughputDl:mean 2365.8560861553642
scalar MultiCell.ue11.cellularNic.rlc.um rlcDelayUl:mean -nan
scalar MultiCell.ue11.cellularNic.rlc.um rlcDelayDl:mean 0.0045579737256834863
scalar MultiCell.ue11.cellularNic.rlc.um rlcPduPacketLossUl:mean -nan
scalar MultiCell.ue11.cellularNic.rlc.um rlcPduPacketLossDl:mean 0
scalar MultiCell.ue11.cellularNic.rlc.um rlcPacketLossUl:mean -nan
scalar MultiCell.ue11.cellularNic.rlc.um rlcPacketLossUl:sum 0
scalar MultiCell.ue11.cellularNic.rlc.um rlcPacketLossDl:mean 0
scalar MultiCell.ue11.cellularNic.rlc.um rlcPacketLossDl:sum 0
scalar MultiCell.ue11.cellularNic.rlc.um rlcCellPacketLossUl:mean -nan
scalar MultiCell.ue11.cellularNic.rlc.um rlcCellPacketLossDl:mean -nan
scalar MultiCell.ue11.cellularNic.rlc.um sentPacketToLowerLayer:count 0
scalar MultiCell.ue11.cellularNic.rlc.um sentPacketToLowerLayer:sum(packetBytes) 0
scalar MultiCell.ue11.cellularNic.rlc.um sentPacketToUpperLayer:count 357
scalar MultiCell.ue11.cellularNic.rlc.um sentPacketToUpperLayer:sum(packetBytes) 24633
scalar MultiCell.ue11.cellularNic.rlc.um receivedPacketFromLowerLayer:count 357
scalar MultiCell.ue11.cellularNic.rlc.um receivedPacketFromLowerLayer:sum(packetBytes) 25347
scalar MultiCell.ue11.cellularNic.rlc.um receivedPacketFromUpperLayer:count 0
scalar MultiCell.ue11.cellularNic.rlc.um receivedPacketFromUpperLayer:sum(packetBytes) 0
scalar MultiCell.ue11.cellularNic.rlc.am rlcPacketLossTotal:mean -nan
scalar MultiCell.ue11.cellularNic.rlc.am rlcCellThroughputUl:mean -nan
scalar MultiCell.ue11.cellularNic.rlc.am rlcCellThroughputDl:mean -nan
scalar MultiCell.ue11.cellularNic.rlc.am rlcPduThroughputUl:mean -nan
scalar MultiCell.ue11.cellularNic.rlc.am rlcPduThroughputDl:mean -nan
scalar MultiCell.ue11.cellularNic.rlc.am rlcPduDelayUl:mean -nan
scalar MultiCell.ue11.cellularNic.rlc.am rlcPduDelayDl:mean -nan
scalar MultiCell.ue11.cellularNic.rlc.am rlcThroughputUl:mean -nan
scalar MultiCell.ue11.cellularNic.rlc.am rlcThroughputDl:mean -nan
scalar MultiCell.ue11.cellularNic.rlc.am rlcDelayUl:mean -nan
scalar MultiCell.ue11.cellularNic.rlc.am rlcDelayDl:mean -nan
scalar MultiCell.ue11.cellularNic.rlc.am rlcPduPacketLossUl:mean -nan
scalar MultiCell.ue11.cellularNic.rlc.am rlcPduPacketLossDl:mean -nan
scalar MultiCell.ue11.cellularNic.rlc.am rlcPacketLossUl:mean -nan
scalar MultiCell.ue11.cellularNic.rlc.am rlcPacketLossDl:mean -nan
scalar MultiCell.ue11.cellularNic.rlc.am rlcCellPacketLossUl:mean -nan
scalar MultiCell.ue11.cellularNic.rlc.am rlcCellPacketLossDl:mean -nan
scalar MultiCell.ue11.cellularNic.mac harqTxAttemptsUl:mean -nan
scalar MultiCell.ue11.cellularNic.mac harqTxAttemptsDl:mean 1
scalar MultiCell.ue11.cellularNic.mac harqErrorRate_4th_Ul:mean -nan
scalar MultiCell.ue11.cellularNic.mac harqErrorRate_4th_Dl:mean -nan
scalar MultiCell.ue11.cellularNic.mac harqErrorRate_3rd_Ul:mean -nan
scalar MultiCell.ue11.cellularNic.mac harqErrorRate_3rd_Dl:mean -nan
scalar MultiCell.ue11.cellularNic.mac harqErrorRate_2nd_Ul:mean -nan
scalar MultiCell.ue11.cellularNic.mac harqErrorRate_2nd_Dl:mean -nan
scalar MultiCell.ue11.cellularNic.mac harqErrorRate_1st_Ul:mean -nan
scalar MultiCell.ue11.cellularNic.mac harqErrorRate_1st_Dl:mean 0
scalar MultiCell.ue11.cellularNic.mac harqErrorRateUl:mean -nan
scalar MultiCell.ue11.cellularNic.mac harqErrorRateDl:mean 0
scalar MultiCell.ue11.cellularNic.mac macCellPacketLossUl:mean -nan
scalar MultiCell.ue11.cellularNic.mac macCellPacketLossDl:mean -nan
scalar MultiCell.ue11.cellularNic.mac macPacketLossUl:mean -nan
scalar MultiCell.ue11.cellularNic.mac macPacketLossDl:mean 0
scalar MultiCell.ue11.cellularNic.mac macThroughputUl:mean -nan
scalar MultiCell.ue11.cellularNic.mac macThroughputDl:mean 2503.0071636136454
scalar MultiCell.ue11.cellularNic.mac macDelayUl:mean -nan
scalar MultiCell.ue11.cellularNic.mac macDelayDl:mean 0.0040000000000000027
scalar MultiCell.ue11.cellularNic.mac macCellThroughputUl:mean -nan
scalar MultiCell.ue11.cellularNic.mac macCellThroughputDl:mean -nan
scalar MultiCell.ue11.cellularNic.mac sentPacketToLowerLayer:count 357
scalar MultiCell.ue11.cellularNic.mac sentPacketToLowerLayer:sum(packetBytes) 357
scalar MultiCell.ue11.cellularNic.mac sentPacketToUpperLayer:count 357
scalar MultiCell.ue11.cellularNic.mac sentPacketToUpperLayer:sum(packetBytes) 25347
scalar MultiCell.ue11.cellularNic.mac receivedPacketFromLowerLayer:count 358
scalar MultiCell.ue11.cellularNic.mac receivedPacketFromLowerLayer:sum(packetBytes) 26134
scalar MultiCell.ue11.cellularNic.mac receivedPacketFromUpperLayer:count 0
scalar MultiCell.ue11.cellularNic.mac receivedPacketFromUpperLayer:sum(packetBytes) 0
scalar MultiCell.ue11.cellularNic.mac macBufferOverFlowD2D:mean -nan
scalar MultiCell.ue11.cellularNic.mac macBufferOverFlowUl:mean -nan
scalar MultiCell.ue11.cellularNic.mac macBufferOverFlowDl:mean -nan
scalar MultiCell.ue11.cellularNic.phy distance:mean -nan
scalar MultiCell.ue11.cellularNic.phy averageCqiUl:mean -nan
scalar MultiCell.ue11.cellularNic.phy averageCqiUl:count 0
scalar MultiCell.ue11.cellularNic.phy averageCqiDl:mean 15
scalar MultiCell.ue11.cellularNic.phy averageCqiDl:count 358
scalar MultiCell.ue11.cellularNic.channelModel[0] measuredSinrUl:mean 44.227222777865883
scalar MultiCell.ue11.cellularNic.channelModel[0] measuredSinrDl:mean 67.383978239908842
scalar MultiCell.ue11.cellularNic.channelModel[0] rcvdSinrD2D:mean -nan
scalar MultiCell.ue11.cellularNic.channelModel[0] rcvdSinrUl:mean -nan
scalar MultiCell.ue11.cellularNic.channelModel[0] rcvdSinrDl:mean 65.023031574907705
scalar MultiCell.ue11.cellularNic packetDropInterfaceDown:count 0
scalar MultiCell.ue11.cellularNic packetDropInterfaceDown:sum(packetBytes) 0
scalar MultiCell.ue11.cellularNic packetDropNoCarrier:count 0
scalar MultiCell.ue11.cellularNic packetDropNoCarrier:sum(packetBytes) 0
scalar MultiCell.ue11.encap pauseSent:count 0
scalar MultiCell.ue11.encap pauseSent:sum 0
scalar MultiCell.ue11.encap decapPk:count 0
scalar MultiCell.ue11.encap decapPk:sum(packetBytes) 0
scalar MultiCell.ue11.encap encapPk:count 0
scalar MultiCell.ue11.encap encapPk:sum(packetBytes) 0
scalar MultiCell.ue11.ipv4.ip packetDropAddressResolutionFailed:count 0
scalar MultiCell.ue11.ipv4.ip packetDropAddressResolutionFailed:sum(packetBytes) 0
scalar MultiCell.ue11.ipv4.ip packetDropHopLimitReached:count 0
scalar MultiCell.ue11.ipv4.ip packetDropHopLimitReached:sum(packetBytes) 0
scalar MultiCell.ue11.ipv4.ip packetDropForwardingDisabled:count 0
scalar MultiCell.ue11.ipv4.ip packetDropForwardingDisabled:sum(packetBytes) 0
scalar MultiCell.ue11.ipv4.ip packetDropNoInterfaceFound:count 0
scalar MultiCell.ue11.ipv4.ip packetDropNoInterfaceFound:sum(packetBytes) 0
scalar MultiCell.ue11.ipv4.ip packetDropNoRouteFound:count 0
scalar MultiCell.ue11.ipv4.ip packetDropNoRouteFound:sum(packetBytes) 0
scalar MultiCell.ue11.ipv4.ip packetDropUndefined:count 0
scalar MultiCell.ue11.ipv4.ip packetDropUndefined:sum(packetBytes) 0
scalar MultiCell.ue11.ipv4.arp arpResolutionFailed:count 0
scalar MultiCell.ue11.ipv4.arp arpResolutionCompleted:count 0
scalar MultiCell.ue11.ipv4.arp arpResolutionInitiated:count 0
scalar MultiCell.ue11.ipv4.arp arpReplySent:count 0
scalar MultiCell.ue11.ipv4.arp arpReplySent:sum(packetBytes) 0
scalar MultiCell.ue11.ipv4.arp arpRequestSent:count 0
scalar MultiCell.ue11.ipv4.arp arpRequestSent:sum(packetBytes) 0
scalar MultiCell.ue11.udp packetReceived:count 357
scalar MultiCell.ue11.udp packetReceived:sum(packetBytes) 17136
scalar MultiCell.ue11.udp packetSent:count 0
scalar MultiCell.ue11.udp packetSent:sum(packetBytes) 0
scalar MultiCell.ue11.udp passedUpPk:count 357
scalar MultiCell.ue11.udp droppedPkWrongPort:count 0
scalar MultiCell.ue11.udp droppedPkBadChecksum:count 0
scalar MultiCell.ue11.app[0] voIPReceivedThroughput:mean 1371.5107745828204
scalar MultiCell.ue11.app[0] voIPPlayoutLoss:mean 0
scalar MultiCell.ue11.app[0] voIPJitter:mean -nan
scalar MultiCell.ue11.app[0] voIPTaildropLoss:mean 0
scalar MultiCell.ue11.app[0] voIPMos:mean 4.4092858240000004
scalar MultiCell.ue11.app[0] voIPPlayoutDelay:mean 0
scalar MultiCell.ue11.app[0] voIPFrameDelay:mean 0.0045583325256834629
scalar MultiCell.ue11.app[0] voIPFrameLoss:mean 0
scalar MultiCell.ue12.lo[0].lo rcvdPkFromHl:count 0
scalar MultiCell.ue12.lo[0].lo rcvdPkFromHl:sum(packetBytes) 0
scalar MultiCell.ue12.lo[0].lo passedUpPk:count 0
scalar MultiCell.ue12.lo[0].lo passedUpPk:sum(packetBytes) 0
scalar MultiCell.ue12.lo[0] packetDropInterfaceDown:count 0
scalar MultiCell.ue12.lo[0] packetDropInterfaceDown:sum(packetBytes) 0
scalar MultiCell.ue12.lo[0] packetDropNoCarrier:count 0
scalar MultiCell.ue12.lo[0] packetDropNoCarrier:sum(packetBytes) 0
scalar MultiCell.ue12.cellularNic.pdcp sentPacketToLowerLayer:count 0
scalar MultiCell.ue12.cellularNic.pdcp sentPacketToLowerLayer:sum(packetBytes) 0
scalar MultiCell.ue12.cellularNic.pdcp sentPacketToUpperLayer:count 197
scalar MultiCell.ue12.cellularNic.pdcp sentPacketToUpperLayer:sum(packetBytes) 13396
scalar MultiCell.ue12.cellularNic.pdcp receivedPacketFromLowerLayer:count 197
scalar MultiCell.ue12.cellularNic.pdcp receivedPacketFromLowerLayer:sum(packetBytes) 13593
scalar MultiCell.ue12.cellularNic.pdcp receivedPacketFromUpperLayer:count 0
scalar MultiCell.ue12.cellularNic.pdcp receivedPacketFromUpperLayer:sum(packetBytes) 0
scalar MultiCell.ue12.cellularNic.rlc.tm rlcPacketLossUl:mean -nan
scalar MultiCell.ue12.cellularNic.rlc.tm rlcPacketLossUl:sum 0
scalar MultiCell.ue12.cellularNic.rlc.tm rlcPacketLossDl:mean -nan
scalar MultiCell.ue12.cellularNic.rlc.tm rlcPacketLossDl:sum 0
scalar MultiCell.ue12.cellularNic.rlc.tm sentPacketToLowerLayer:count 0
scalar MultiCell.ue12.cellularNic.rlc.tm sentPacketToLowerLayer:sum(packetBytes) 0
scalar MultiCell.ue12.cellularNic.rlc.tm sentPacketToUpperLayer:count 0
scalar MultiCell.ue12.cellularNic.rlc.tm sentPacketToUpperLayer:sum(packetBytes) 0
scalar MultiCell.ue12.cellularNic.rlc.tm receivedPacketFromLowerLayer:count 0
scalar MultiCell.ue12.cellularNic.rlc.tm receivedPacketFromLowerLayer:sum(packetBytes) 0
scalar MultiCell.ue12.cellularNic.rlc.tm receivedPacketFromUpperLayer:count 0
scalar MultiCell.ue12.cellularNic.rlc.tm receivedPacketFromUpperLayer:sum(packetBytes) 0
scalar MultiCell.ue12.cellularNic.rlc.um rlcPacketLossTotal:mean 0
scalar MultiCell.ue12.cellularNic.rlc.um rlcCellThroughputUl:mean -nan
scalar MultiCell.ue12.cellularNic.rlc.um rlcCellThroughputDl:mean -nan
scalar MultiCell.ue12.cellularNic.rlc.um rlcPduThroughputUl:mean -nan
scalar MultiCell.ue12.cellularNic.rlc.um rlcPduThroughputDl:mean 0
scalar MultiCell.ue12.cellularNic.rlc.um rlcPduDelayUl:mean -nan
scalar MultiCell.ue12.cellularNic.rlc.um rlcPduDelayDl:mean 0.0040000000000000027
scalar MultiCell.ue12.cellularNic.rlc.um rlcThroughputUl:mean -nan
scalar MultiCell.ue12.cellularNic.rlc.um rlcThroughputDl:mean 1799.5681423515807
scalar MultiCell.ue12.cellularNic.rlc.um rlcDelayUl:mean -nan
scalar MultiCell.ue12.cellularNic.rlc.um rlcDelayDl:mean 0.0045017460932994802
scalar MultiCell.ue12.cellularNic.rlc.um rlcPduPacketLossUl:mean -nan
scalar MultiCell.ue12.cellularNic.rlc.um rlcPduPacketLossDl:mean 0
scalar MultiCell.ue12.cellularNic.rlc.um rlcPacketLossUl:mean -nan
scalar MultiCell.ue12.cellularNic.rlc.um rlcPacketLossUl:sum 0
scalar MultiCell.ue12.cellularNic.rlc.um rlcPacketLossDl:mean 0
scalar MultiCell.ue12.cellularNic.rlc.um rlcPacketLossDl:sum 0
scalar MultiCell.ue12.cellularNic.rlc.um rlcCellPacketLossUl:mean -nan
scalar MultiCell.ue12.cellularNic.rlc.um rlcCellPacketLossDl:mean -nan
scalar MultiCell.ue12.cellularNic.rlc.um sentPacketToLowerLayer:count 0
scalar MultiCell.ue12.cellularNic.rlc.um sentPacketToLowerLayer:sum(packetBytes) 0
scalar MultiCell.ue12.cellularNic.rlc.um sentPacketToUpperLayer:count 197
scalar MultiCell.ue12.cellularNic.rlc.um sentPacketToUpperLayer:sum(packetBytes) 13593
scalar MultiCell.ue12.cellularNic.rlc.um receivedPacketFromLowerLayer:count 197
scalar MultiCell.ue12.cellularNic.rlc.um receivedPacketFromLowerLayer:sum(packetBytes) 13987
scalar MultiCell.ue12.cellularNic.rlc.um receivedPacketFromUpperLayer:count 0
scalar MultiCell.ue12.cellularNic.rlc.um receivedPacketFromUpperLayer:sum(packetBytes) 0
scalar MultiCell.ue12.cellularNic.rlc.am rlcPacketLossTotal:mean -nan
scalar MultiCell.ue12.cellularNic.rlc.am rlcCellThroughputUl:mean -nan
scalar MultiCell.ue12.cellularNic.rlc.am rlcCellThroughputDl:mean -nan
scalar MultiCell.ue12.cellularNic.rlc.am rlcPduThroughputUl:mean -nan
scalar MultiCell.ue12.cellularNic.rlc.am rlcPduThroughputDl:mean -nan
scalar MultiCell.ue12.cellularNic.rlc.am rlcPduDelayUl:mean -nan
scalar MultiCell.ue12.cellularNic.rlc.am rlcPduDelayDl:mean -nan
scalar MultiCell.ue12.cellularNic.rlc.am rlcThroughputUl:mean -nan
scalar MultiCell.ue12.cellularNic.rlc.am rlcThroughputDl:mean -nan
scalar MultiCell.ue12.cellularNic.rlc.am rlcDelayUl:mean -nan
scalar MultiCell.ue12.cellularNic.rlc.am rlcDelayDl:mean -nan
scalar MultiCell.ue12.cellularNic.rlc.am rlcPduPacketLossUl:mean -nan
scalar MultiCell.ue12.cellularNic.rlc.am rlcPduPacketLossDl:mean -nan
scalar MultiCell.ue12.cellularNic.rlc.am rlcPacketLossUl:mean -nan
scalar MultiCell.ue12.cellularNic.rlc.am rlcPacketLossDl:mean -nan
scalar MultiCell.ue12.cellularNic.rlc.am rlcCellPacketLossUl:mean -nan
scalar MultiCell.ue12.cellularNic.rlc.am rlcCellPacketLossDl:mean -nan
scalar MultiCell.ue12.cellularNic.mac harqTxAttemptsUl:mean -nan
scalar MultiCell.ue12.cellularNic.mac harqTxAttemptsDl:mean 1
scalar MultiCell.ue12.cellularNic.mac harqErrorRate_4th_Ul:mean -nan
scalar MultiCell.ue12.cellularNic.mac harqErrorRate_4th_Dl:mean -nan
scalar MultiCell.ue12.cellularNic.mac harqErrorRate_3rd_Ul:mean -nan
scalar MultiCell.ue12.cellularNic.mac harqErrorRate_3rd_Dl:mean -nan
scalar MultiCell.ue12.cellularNic.mac harqErrorRate_2nd_Ul:mean -nan
scalar MultiCell.ue12.cellularNic.mac harqErrorRate_2nd_Dl:mean -nan
scalar MultiCell.ue12.cellularNic.mac harqErrorRate_1st_Ul:mean -nan
scalar MultiCell.ue12.cellularNic.mac harqErrorRate_1st_Dl:mean 0
scalar MultiCell.ue12.cellularNic.mac harqErrorRateUl:mean -nan
scalar MultiCell.ue12.cellularNic.mac harqErrorRateDl:mean 0
scalar MultiCell.ue12.cellularNic.mac macCellPacketLossUl:mean -nan
scalar MultiCell.ue12.cellularNic.mac macCellPacketLossDl:mean -nan
scalar MultiCell.ue12.cellularNic.mac macPacketLossUl:mean -nan
scalar MultiCell.ue12.cellularNic.mac macPacketLossDl:mean 0
scalar MultiCell.ue12.cellularNic.mac macThroughputUl:mean -nan
scalar MultiCell.ue12.cellularNic.mac macThroughputDl:mean 1903.8909332125429
scalar MultiCell.ue12.cellularNic.mac macDelayUl:mean -nan
scalar MultiCell.ue12.cellularNic.mac macDelayDl:mean 0.0040000000000000027
scalar MultiCell.ue12.cellularNic.mac macCellThroughputUl:mean -nan
scalar MultiCell.ue12.cellularNic.mac macCellThroughputDl:mean -nan
scalar MultiCell.ue12.cellularNic.mac sentPacketToLowerLayer:count 197
scalar MultiCell.ue12.cellularNic.mac sentPacketToLowerLayer:sum(packetBytes) 197
scalar MultiCell.ue12.cellularNic.mac sentPacketToUpperLayer:count 197
scalar MultiCell.ue12.cellularNic.mac sentPacketToUpperLayer:sum(packetBytes) 13987
scalar MultiCell.ue12.cellularNic.mac receivedPacketFromLowerLayer:count 197
scalar MultiCell.ue12.cellularNic.mac receivedPacketFromLowerLayer:sum(packetBytes) 14381
scalar MultiCell.ue12.cellularNic.mac receivedPacketFromUpperLayer:count 0
scalar MultiCell.ue12.cellularNic.mac receivedPacketFromUpperLayer:sum(packetBytes) 0
scalar MultiCell.ue12.cellularNic.mac macBufferOverFlowD2D:mean -nan
scalar MultiCell.ue12.cellularNic.mac macBufferOverFlowUl:mean -nan
scalar MultiCell.ue12.cellularNic.mac macBufferOverFlowDl:mean -nan
scalar MultiCell.ue12.cellularNic.phy distance:mean -nan
scalar MultiCell.ue12.cellularNic.phy averageCqiUl:mean -nan
scalar MultiCell.ue12.cellularNic.phy averageCqiUl:count 0
scalar MultiCell.ue12.cellularNic.phy averageCqiDl:mean 14.928934010152284
scalar MultiCell.ue12.cellularNic.phy averageCqiDl:count 197
scalar MultiCell.ue12.cellularNic.channelModel[0] measuredSinrUl:mean 34.216718264951631
scalar MultiCell.ue12.cellularNic.channelModel[0] measuredSinrDl:mean 57.301056225350841
scalar MultiCell.ue12.cellularNic.channelModel[0] rcvdSinrD2D:mean -nan
scalar MultiCell.ue12.cellularNic.channelModel[0] rcvdSinrUl:mean -nan
scalar MultiCell.ue12.cellularNic.channelModel[0] rcvdSinrDl:mean 57.935881447299678
scalar MultiCell.ue12.cellularNic packetDropInterfaceDown:count 0
scalar MultiCell.ue12.cellularNic packetDropInterfaceDown:sum(packetBytes) 0
scalar MultiCell.ue12.cellularNic packetDropNoCarrier:count 0
scalar MultiCell.ue12.cellularNic packetDropNoCarrier:sum(packetBytes) 0
scalar MultiCell.ue12.encap pauseSent:count 0
scalar MultiCell.ue12.encap pauseSent:sum 0
scalar MultiCell.ue12.encap decapPk:count 0
scalar MultiCell.ue12.encap decapPk:sum(packetBytes) 0
scalar MultiCell.ue12.encap encapPk:count 0
scalar MultiCell.ue12.encap encapPk:sum(packetBytes) 0
scalar MultiCell.ue12.ipv4.ip packetDropAddressResolutionFailed:count 0
scalar MultiCell.ue12.ipv4.ip packetDropAddressResolutionFailed:sum(packetBytes) 0
scalar MultiCell.ue12.ipv4.ip packetDropHopLimitReached:count 0
scalar MultiCell.ue12.ipv4.ip packetDropHopLimitReached:sum(packetBytes) 0
scalar MultiCell.ue12.ipv4.ip packetDropForwardingDisabled:count 0
scalar MultiCell.ue12.ipv4.ip packetDropForwardingDisabled:sum(packetBytes) 0
scalar MultiCell.ue12.ipv4.ip packetDropNoInterfaceFound:count 0
scalar MultiCell.ue12.ipv4.ip packetDropNoInterfaceFound:sum(packetBytes) 0
scalar MultiCell.ue12.ipv4.ip packetDropNoRouteFound:count 0
scalar MultiCell.ue12.ipv4.ip packetDropNoRouteFound:sum(packetBytes) 0
scalar MultiCell.ue12.ipv4.ip packetDropUndefined:count 0
scalar MultiCell.ue12.ipv4.ip packetDropUndefined:sum(packetBytes) 0
scalar MultiCell.ue12.ipv4.arp arpResolutionFailed:count 0
scalar MultiCell.ue12.ipv4.arp arpResolutionCompleted:count 0
scalar MultiCell.ue12.ipv4.arp arpResolutionInitiated:count 0
scalar MultiCell.ue12.ipv4.arp arpReplySent:count 0
scalar MultiCell.ue12.ipv4.arp arpReplySent:sum(packetBytes) 0
scalar MultiCell.ue12.ipv4.arp arpRequestSent:count 0
scalar MultiCell.ue12.ipv4.arp arpRequestSent:sum(packetBytes) 0
scalar MultiCell.ue12.udp packetReceived:count 197
scalar MultiCell.ue12.udp packetReceived:sum(packetBytes) 9456
scalar MultiCell.ue12.udp packetSent:count 0
scalar MultiCell.ue12.udp packetSent:sum(packetBytes) 0
scalar MultiCell.ue12.udp passedUpPk:count 197
scalar MultiCell.ue12.udp droppedPkWrongPort:count 0
scalar MultiCell.ue12.udp droppedPkBadChecksum:count 0
scalar MultiCell.ue12.app[0] voIPReceivedThroughput:mean 1043.2279086096125
scalar MultiCell.ue12.app[0] voIPPlayoutLoss:mean 0
scalar MultiCell.ue12.app[0] voIPJitter:mean -nan
scalar MultiCell.ue12.app[0] voIPTaildropLoss:mean 0
scalar MultiCell.ue12.app[0] voIPMos:mean 4.4092858240000004
scalar MultiCell.ue12.app[0] voIPPlayoutDelay:mean 0
scalar MultiCell.ue12.app[0] voIPFrameDelay:mean 0.0045021048932995002
scalar MultiCell.ue12.app[0] voIPFrameLoss:mean 0
scalar MultiCell.ue21.lo[0].lo rcvdPkFromHl:count 0
scalar MultiCell.ue21.lo[0].lo rcvdPkFromHl:sum(packetBytes) 0
scalar MultiCell.ue21.lo[0].lo passedUpPk:count 0
scalar MultiCell.ue21.lo[0].lo passedUpPk:sum(packetBytes) 0
scalar MultiCell.ue21.lo[0] packetDropInterfaceDown:count 0
scalar MultiCell.ue21.lo[0] packetDropInterfaceDown:sum(packetBytes) 0
scalar MultiCell.ue21.lo[0] packetDropNoCarrier:count 0
scalar MultiCell.ue21.lo[0] packetDropNoCarrier:sum(packetBytes) 0
scalar MultiCell.ue21.cellularNic.pdcp sentPacketToLowerLayer:count 0
scalar MultiCell.ue21.cellularNic.pdcp sentPacketToLowerLayer:sum(packetBytes) 0
scalar MultiCell.ue21.cellularNic.pdcp sentPacketToUpperLayer:count 334
scalar MultiCell.ue21.cellularNic.pdcp sentPacketToUpperLayer:sum(packetBytes) 22712
scalar MultiCell.ue21.cellularNic.pdcp receivedPacketFromLowerLayer:count 334
scalar MultiCell.ue21.cellularNic.pdcp receivedPacketFromLowerLayer:sum(packetBytes) 23046
scalar MultiCell.ue21.cellularNic.pdcp receivedPacketFromUpperLayer:count 0
scalar MultiCell.ue21.cellularNic.pdcp receivedPacketFromUpperLayer:sum(packetBytes) 0
scalar MultiCell.ue21.cellularNic.rlc.tm rlcPacketLossUl:mean -nan
scalar MultiCell.ue21.cellularNic.rlc.tm rlcPacketLossUl:sum 0
scalar MultiCell.ue21.cellularNic.rlc.tm rlcPacketLossDl:mean -nan
scalar MultiCell.ue21.cellularNic.rlc.tm rlcPacketLossDl:sum 0
scalar MultiCell.ue21.cellularNic.rlc.tm sentPacketToLowerLayer:count 0
scalar MultiCell.ue21.cellularNic.rlc.tm sentPacketToLowerLayer:sum(packetBytes) 0
scalar MultiCell.ue21.cellularNic.rlc.tm sentPacketToUpperLayer:count 0
scalar MultiCell.ue21.cellularNic.rlc.tm sentPacketToUpperLayer:sum(packetBytes) 0
scalar MultiCell.ue21.cellularNic.rlc.tm receivedPacketFromLowerLayer:count 0
scalar MultiCell.ue21.cellularNic.rlc.tm receivedPacketFromLowerLayer:sum(packetBytes) 0
scalar MultiCell.ue21.cellularNic.rlc.tm receivedPacketFromUpperLayer:count 0
scalar MultiCell.ue21.cellularNic.rlc.tm receivedPacketFromUpperLayer:sum(packetBytes) 0
scalar MultiCell.ue21.cellularNic.rlc.um rlcPacketLossTotal:mean 0
scalar MultiCell.ue21.cellularNic.rlc.um rlcCellThroughputUl:mean -nan
scalar MultiCell.ue21.cellularNic.rlc.um rlcCellThroughputDl:mean -nan
scalar MultiCell.ue21.cellularNic.rlc.um rlcPduThroughputUl:mean -nan
scalar MultiCell.ue21.cellularNic.rlc.um rlcPduThroughputDl:mean 0
scalar MultiCell.ue21.cellularNic.rlc.um rlcPduDelayUl:mean -nan
scalar MultiCell.ue21.cellularNic.rlc.um rlcPduDelayDl:mean 0.0040000000000000027
scalar MultiCell.ue21.cellularNic.rlc.um rlcThroughputUl:mean -nan
scalar MultiCell.ue21.cellularNic.rlc.um rlcThroughputDl:mean 2777.6088620084979
scalar MultiCell.ue21.cellularNic.rlc.um rlcDelayUl:mean -nan
scalar MultiCell.ue21.cellularNic.rlc.um rlcDelayDl:mean 0.0044842211380509032
scalar MultiCell.ue21.cellularNic.rlc.um rlcPduPacketLossUl:mean -nan
scalar MultiCell.ue21.cellularNic.rlc.um rlcPduPacketLossDl:mean 0
scalar MultiCell.ue21.cellularNic.rlc.um rlcPacketLossUl:mean -nan
scalar MultiCell.ue21.cellularNic.rlc.um rlcPacketLossUl:sum 0
scalar MultiCell.ue21.cellularNic.rlc.um rlcPacketLossDl:mean 0
scalar MultiCell.ue21.cellularNic.rlc.um rlcPacketLossDl:sum 0
scalar MultiCell.ue21.cellularNic.rlc.um rlcCellPacketLossUl:mean -nan
scalar MultiCell.ue21.cellularNic.rlc.um rlcCellPacketLossDl:mean -nan
scalar MultiCell.ue21.cellularNic.rlc.um sentPacketToLowerLayer:count 0
scalar MultiCell.ue21.cellularNic.rlc.um sentPacketToLowerLayer:sum(packetBytes) 0
scalar MultiCell.ue21.cellularNic.rlc.um sentPacketToUpperLayer:count 334
scalar MultiCell.ue21.cellularNic.rlc.um sentPacketToUpperLayer:sum(packetBytes) 23046
scalar MultiCell.ue21.cellularNic.rlc.um receivedPacketFromLowerLayer:count 334
scalar MultiCell.ue21.cellularNic.rlc.um receivedPacketFromLowerLayer:sum(packetBytes) 23714
scalar MultiCell.ue21.cellularNic.rlc.um receivedPacketFromUpperLayer:count 0
scalar MultiCell.ue21.cellularNic.rlc.um receivedPacketFromUpperLayer:sum(packetBytes) 0
scalar MultiCell.ue21.cellularNic.rlc.am rlcPacketLossTotal:mean -nan
scalar MultiCell.ue21.cellularNic.rlc.am rlcCellThroughputUl:mean -nan
scalar MultiCell.ue21.cellularNic.rlc.am rlcCellThroughputDl:mean -nan
scalar MultiCell.ue21.cellularNic.rlc.am rlcPduThroughputUl:mean -nan
scalar MultiCell.ue21.cellularNic.rlc.am rlcPduThroughputDl:mean -nan
scalar MultiCell.ue21.cellularNic.rlc.am rlcPduDelayUl:mean -nan
scalar MultiCell.ue21.cellularNic.rlc.am rlcPduDelayDl:mean -nan
scalar MultiCell.ue21.cellularNic.rlc.am rlcThroughputUl:mean -nan
scalar MultiCell.ue21.cellularNic.rlc.am rlcThroughputDl:mean -nan
scalar MultiCell.ue21.cellularNic.rlc.am rlcDelayUl:mean -nan
scalar MultiCell.ue21.cellularNic.rlc.am rlcDelayDl:mean -nan
scalar MultiCell.ue21.cellularNic.rlc.am rlcPduPacketLossUl:mean -nan
scalar MultiCell.ue21.cellularNic.rlc.am rlcPduPacketLossDl:mean -nan
scalar MultiCell.ue21.cellularNic.rlc.am rlcPacketLossUl:mean -nan
scalar MultiCell.ue21.cellularNic.rlc.am rlcPacketLossDl:mean -nan
scalar MultiCell.ue21.cellularNic.rlc.am rlcCellPacketLossUl:mean -nan
scalar MultiCell.ue21.cellularNic.rlc.am rlcCellPacketLossDl:mean -nan
scalar MultiCell.ue21.cellularNic.mac harqTxAttemptsUl:mean -nan
scalar MultiCell.ue21.cellularNic.mac harqTxAttemptsDl:mean 1
scalar MultiCell.ue21.cellularNic.mac harqErrorRate_4th_Ul:mean -nan
scalar MultiCell.ue21.cellularNic.mac harqErrorRate_4th_Dl:mean -nan
scalar MultiCell.ue21.cellularNic.mac harqErrorRate_3rd_Ul:mean -nan
scalar MultiCell.ue21.cellularNic.mac harqErrorRate_3rd_Dl:mean -nan
scalar MultiCell.ue21.cellularNic.mac harqErrorRate_2nd_Ul:mean -nan
scalar MultiCell.ue21.cellularNic.mac harqErrorRate_2nd_Dl:mean -nan
[...]
scalar MultiCell.ue22.cellularNic.mac sentPacketToLowerLayer:vector(packetBytes):stddev nan
scalar MultiCell.ue22.cellularNic.mac sentPacketToLowerLayer:vector(packetBytes):min inf
scalar MultiCell.ue22.cellularNic.mac sentPacketToLowerLayer:vector(packetBytes):max -inf
scalar MultiCell.ue22.cellularNic.mac sentPacketToLowerLayer:vector(packetBytes):starttime nan
scalar MultiCell.ue22.cellularNic.mac sentPacketToLowerLayer:vector(packetBytes):endtime nan
scalar MultiCell.ue22.cellularNic.phy distance:vector:count 0
scalar MultiCell.ue22.cellularNic.phy distance:vector:sum 0
scalar MultiCell.ue22.cellularNic.phy distance:vector:sumweights 0
scalar MultiCell.ue22.cellularNic.phy distance:vector:mean -nan
scalar MultiCell.ue22.cellularNic.phy distance:vector:stddev nan
scalar MultiCell.ue22.cellularNic.phy distance:vector:min inf
scalar MultiCell.ue22.cellularNic.phy distance:vector:max -inf
scalar MultiCell.ue22.cellularNic.phy distance:vector:starttime nan
scalar MultiCell.ue22.cellularNic.phy distance:vector:endtime nan
scalar MultiCell.ue22.cellularNic.phy servingCell:vector:count 0
scalar MultiCell.ue22.cellularNic.phy servingCell:vector:sum 0
scalar MultiCell.ue22.cellularNic.phy servingCell:vector:sumweights 0
scalar MultiCell.ue22.cellularNic.phy servingCell:vector:mean -nan
scalar MultiCell.ue22.cellularNic.phy servingCell:vector:stddev nan
scalar MultiCell.ue22.cellularNic.phy servingCell:vector:min inf
scalar MultiCell.ue22.cellularNic.phy servingCell:vector:max -inf
scalar MultiCell.ue22.cellularNic.phy servingCell:vector:starttime nan
scalar MultiCell.ue22.cellularNic.phy servingCell:vector:endtime nan
scalar MultiCell.ue22.cellularNic.phy averageCqiDl:vector:count 0
scalar MultiCell.ue22.cellularNic.phy averageCqiDl:vector:sum 0
scalar MultiCell.ue22.cellularNic.phy averageCqiDl:vector:sumweights 0
scalar MultiCell.ue22.cellularNic.phy averageCqiDl:vector:mean -nan
scalar MultiCell.ue22.cellularNic.phy averageCqiDl:vector:stddev nan
scalar MultiCell.ue22.cellularNic.phy averageCqiDl:vector:min inf
scalar MultiCell.ue22.cellularNic.phy averageCqiDl:vector:max -inf
scalar MultiCell.ue22.cellularNic.phy averageCqiDl:vector:starttime nan
scalar MultiCell.ue22.cellularNic.phy averageCqiDl:vector:endtime nan
scalar MultiCell.ue22.cellularNic.phy averageCqiUl:vector:count 0
scalar MultiCell.ue22.cellularNic.phy averageCqiUl:vector:sum 0
scalar MultiCell.ue22.cellularNic.phy averageCqiUl:vector:sumweights 0
scalar MultiCell.ue22.cellularNic.phy averageCqiUl:vector:mean -nan
scalar MultiCell.ue22.cellularNic.phy averageCqiUl:vector:stddev nan
scalar MultiCell.ue22.cellularNic.phy averageCqiUl:vector:min inf
scalar MultiCell.ue22.cellularNic.phy averageCqiUl:vector:max -inf
scalar MultiCell.ue22.cellularNic.phy averageCqiUl:vector:starttime nan
scalar MultiCell.ue22.cellularNic.phy averageCqiUl:vector:endtime nan
scalar MultiCell.ue22.cellularNic.channelModel[0] rcvdSinrDl:vector:count 0
scalar MultiCell.ue22.cellularNic.channelModel[0] rcvdSinrDl:vector:sum 0
scalar MultiCell.ue22.cellularNic.channelModel[0] rcvdSinrDl:vector:sumweights 0
scalar MultiCell.ue22.cellularNic.channelModel[0] rcvdSinrDl:vector:mean -nan
scalar MultiCell.ue22.cellularNic.channelModel[0] rcvdSinrDl:vector:stddev nan
scalar MultiCell.ue22.cellularNic.channelModel[0] rcvdSinrDl:vector:min inf
scalar MultiCell.ue22.cellularNic.channelModel[0] rcvdSinrDl:vector:max -inf
scalar MultiCell.ue22.cellularNic.channelModel[0] rcvdSinrDl:vector:starttime nan
scalar MultiCell.ue22.cellularNic.channelModel[0] rcvdSinrDl:vector:endtime nan
scalar MultiCell.ue22.cellularNic.channelModel[0] rcvdSinrUl:vector:count 0
scalar MultiCell.ue22.cellularNic.channelModel[0] rcvdSinrUl:vector:sum 0
scalar MultiCell.ue22.cellularNic.channelModel[0] rcvdSinrUl:vector:sumweights 0
scalar MultiCell.ue22.cellularNic.channelModel[0] rcvdSinrUl:vector:mean -nan
scalar MultiCell.ue22.cellularNic.channelModel[0] rcvdSinrUl:vector:stddev nan
scalar MultiCell.ue22.cellularNic.channelModel[0] rcvdSinrUl:vector:min inf
scalar MultiCell.ue22.cellularNic.channelModel[0] rcvdSinrUl:vector:max -inf
scalar MultiCell.ue22.cellularNic.channelModel[0] rcvdSinrUl:vector:starttime nan
scalar MultiCell.ue22.cellularNic.channelModel[0] rcvdSinrUl:vector:endtime nan
scalar MultiCell.ue22.cellularNic.channelModel[0] rcvdSinrD2D:vector:count 0
scalar MultiCell.ue22.cellularNic.channelModel[0] rcvdSinrD2D:vector:sum 0
scalar MultiCell.ue22.cellularNic.channelModel[0] rcvdSinrD2D:vector:sumweights 0
scalar MultiCell.ue22.cellularNic.channelModel[0] rcvdSinrD2D:vector:mean -nan
scalar MultiCell.ue22.cellularNic.channelModel[0] rcvdSinrD2D:vector:stddev nan
scalar MultiCell.ue22.cellularNic.channelModel[0] rcvdSinrD2D:vector:min inf
scalar MultiCell.ue22.cellularNic.channelModel[0] rcvdSinrD2D:vector:max -inf
scalar MultiCell.ue22.cellularNic.channelModel[0] rcvdSinrD2D:vector:starttime nan
scalar MultiCell.ue22.cellularNic.channelModel[0] rcvdSinrD2D:vector:endtime nan
scalar MultiCell.ue22.cellularNic.channelModel[0] measuredSinrDl:vector:count 0
scalar MultiCell.ue22.cellularNic.channelModel[0] measuredSinrDl:vector:sum 0
scalar MultiCell.ue22.cellularNic.channelModel[0] measuredSinrDl:vector:sumweights 0
scalar MultiCell.ue22.cellularNic.channelModel[0] measuredSinrDl:vector:mean -nan
scalar MultiCell.ue22.cellularNic.channelModel[0] measuredSinrDl:vector:stddev nan
scalar MultiCell.ue22.cellularNic.channelModel[0] measuredSinrDl:vector:min inf
scalar MultiCell.ue22.cellularNic.channelModel[0] measuredSinrDl:vector:max -inf
scalar MultiCell.ue22.cellularNic.channelModel[0] measuredSinrDl:vector:starttime nan
scalar MultiCell.ue22.cellularNic.channelModel[0] measuredSinrDl:vector:endtime nan
scalar MultiCell.ue22.cellularNic.channelModel[0] measuredSinrUl:vector:count 0
scalar MultiCell.ue22.cellularNic.channelModel[0] measuredSinrUl:vector:sum 0
scalar MultiCell.ue22.cellularNic.channelModel[0] measuredSinrUl:vector:sumweights 0
scalar MultiCell.ue22.cellularNic.channelModel[0] measuredSinrUl:vector:mean -nan
scalar MultiCell.ue22.cellularNic.channelModel[0] measuredSinrUl:vector:stddev nan
scalar MultiCell.ue22.cellularNic.channelModel[0] measuredSinrUl:vector:min inf
scalar MultiCell.ue22.cellularNic.channelModel[0] measuredSinrUl:vector:max -inf
scalar MultiCell.ue22.cellularNic.channelModel[0] measuredSinrUl:vector:starttime nan
scalar MultiCell.ue22.cellularNic.channelModel[0] measuredSinrUl:vector:endtime nan
scalar MultiCell.ue22.cellularNic packetDropInterfaceDown:vector(packetBytes):count 0
scalar MultiCell.ue22.cellularNic packetDropInterfaceDown:vector(packetBytes):sum 0
scalar MultiCell.ue22.cellularNic packetDropInterfaceDown:vector(packetBytes):sumweights 0
scalar MultiCell.ue22.cellularNic packetDropInterfaceDown:vector(packetBytes):mean -nan
scalar MultiCell.ue22.cellularNic packetDropInterfaceDown:vector(packetBytes):stddev nan
scalar MultiCell.ue22.cellularNic packetDropInterfaceDown:vector(packetBytes):min inf
scalar MultiCell.ue22.cellularNic packetDropInterfaceDown:vector(packetBytes):max -inf
scalar MultiCell.ue22.cellularNic packetDropInterfaceDown:vector(packetBytes):starttime nan
scalar MultiCell.ue22.cellularNic packetDropInterfaceDown:vector(packetBytes):endtime nan
scalar MultiCell.ue22.cellularNic packetDropNoCarrier:vector(packetBytes):count 0
scalar MultiCell.ue22.cellularNic packetDropNoCarrier:vector(packetBytes):sum 0
scalar MultiCell.ue22.cellularNic packetDropNoCarrier:vector(packetBytes):sumweights 0
scalar MultiCell.ue22.cellularNic packetDropNoCarrier:vector(packetBytes):mean -nan
scalar MultiCell.ue22.cellularNic packetDropNoCarrier:vector(packetBytes):stddev nan
scalar MultiCell.ue22.cellularNic packetDropNoCarrier:vector(packetBytes):min inf
scalar MultiCell.ue22.cellularNic packetDropNoCarrier:vector(packetBytes):max -inf
scalar MultiCell.ue22.cellularNic packetDropNoCarrier:vector(packetBytes):starttime nan
scalar MultiCell.ue22.cellularNic packetDropNoCarrier:vector(packetBytes):endtime nan
scalar MultiCell.ue22.encap encapPk:vector(packetBytes):count 0
scalar MultiCell.ue22.encap encapPk:vector(packetBytes):sum 0
scalar MultiCell.ue22.encap encapPk:vector(packetBytes):sumweights 0
scalar MultiCell.ue22.encap encapPk:vector(packetBytes):mean -nan
scalar MultiCell.ue22.encap encapPk:vector(packetBytes):stddev nan
scalar MultiCell.ue22.encap encapPk:vector(packetBytes):min inf
scalar MultiCell.ue22.encap encapPk:vector(packetBytes):max -inf
scalar MultiCell.ue22.encap encapPk:vector(packetBytes):starttime nan
scalar MultiCell.ue22.encap encapPk:vector(packetBytes):endtime nan
scalar MultiCell.ue22.encap decapPk:vector(packetBytes):count 0
scalar MultiCell.ue22.encap decapPk:vector(packetBytes):sum 0
scalar MultiCell.ue22.encap decapPk:vector(packetBytes):sumweights 0
scalar MultiCell.ue22.encap decapPk:vector(packetBytes):mean -nan
scalar MultiCell.ue22.encap decapPk:vector(packetBytes):stddev nan
scalar MultiCell.ue22.encap decapPk:vector(packetBytes):min inf
scalar MultiCell.ue22.encap decapPk:vector(packetBytes):max -inf
scalar MultiCell.ue22.encap decapPk:vector(packetBytes):starttime nan
scalar MultiCell.ue22.encap decapPk:vector(packetBytes):endtime nan
scalar MultiCell.ue22.encap pauseSent:vector:count 0
scalar MultiCell.ue22.encap pauseSent:vector:sum 0
scalar MultiCell.ue22.encap pauseSent:vector:sumweights 0
scalar MultiCell.ue22.encap pauseSent:vector:mean -nan
scalar MultiCell.ue22.encap pauseSent:vector:stddev nan
scalar MultiCell.ue22.encap pauseSent:vector:min inf
scalar MultiCell.ue22.encap pauseSent:vector:max -inf
scalar MultiCell.ue22.encap pauseSent:vector:starttime nan
scalar MultiCell.ue22.encap pauseSent:vector:endtime nan
scalar MultiCell.ue22.ipv4.ip packetDropAddressResolutionFailed:vector(packetBytes):count 0
scalar MultiCell.ue22.ipv4.ip packetDropAddressResolutionFailed:vector(packetBytes):sum 0
scalar MultiCell.ue22.ipv4.ip packetDropAddressResolutionFailed:vector(packetBytes):sumweights 0
scalar MultiCell.ue22.ipv4.ip packetDropAddressResolutionFailed:vector(packetBytes):mean -nan
scalar MultiCell.ue22.ipv4.ip packetDropAddressResolutionFailed:vector(packetBytes):stddev nan
scalar MultiCell.ue22.ipv4.ip packetDropAddressResolutionFailed:vector(packetBytes):min inf
scalar MultiCell.ue22.ipv4.ip packetDropAddressResolutionFailed:vector(packetBytes):max -inf
scalar MultiCell.ue22.ipv4.ip packetDropAddressResolutionFailed:vector(packetBytes):starttime nan
scalar MultiCell.ue22.ipv4.ip packetDropAddressResolutionFailed:vector(packetBytes):endtime nan
scalar MultiCell.ue22.ipv4.ip packetDropHopLimitReached:vector(packetBytes):count 0
scalar MultiCell.ue22.ipv4.ip packetDropHopLimitReached:vector(packetBytes):sum 0
scalar MultiCell.ue22.ipv4.ip packetDropHopLimitReached:vector(packetBytes):sumweights 0
scalar MultiCell.ue22.ipv4.ip packetDropHopLimitReached:vector(packetBytes):mean -nan
scalar MultiCell.ue22.ipv4.ip packetDropHopLimitReached:vector(packetBytes):stddev nan
scalar MultiCell.ue22.ipv4.ip packetDropHopLimitReached:vector(packetBytes):min inf
scalar MultiCell.ue22.ipv4.ip packetDropHopLimitReached:vector(packetBytes):max -inf
scalar MultiCell.ue22.ipv4.ip packetDropHopLimitReached:vector(packetBytes):starttime nan
scalar MultiCell.ue22.ipv4.ip packetDropHopLimitReached:vector(packetBytes):endtime nan
scalar MultiCell.ue22.ipv4.ip packetDropForwardingDisabled:vector(packetBytes):count 0
scalar MultiCell.ue22.ipv4.ip packetDropForwardingDisabled:vector(packetBytes):sum 0
scalar MultiCell.ue22.ipv4.ip packetDropForwardingDisabled:vector(packetBytes):sumweights 0
scalar MultiCell.ue22.ipv4.ip packetDropForwardingDisabled:vector(packetBytes):mean -nan
scalar MultiCell.ue22.ipv4.ip packetDropForwardingDisabled:vector(packetBytes):stddev nan
scalar MultiCell.ue22.ipv4.ip packetDropForwardingDisabled:vector(packetBytes):min inf
scalar MultiCell.ue22.ipv4.ip packetDropForwardingDisabled:vector(packetBytes):max -inf
scalar MultiCell.ue22.ipv4.ip packetDropForwardingDisabled:vector(packetBytes):starttime nan
scalar MultiCell.ue22.ipv4.ip packetDropForwardingDisabled:vector(packetBytes):endtime nan
scalar MultiCell.ue22.ipv4.ip packetDropNoInterfaceFound:vector(packetBytes):count 0
scalar MultiCell.ue22.ipv4.ip packetDropNoInterfaceFound:vector(packetBytes):sum 0
scalar MultiCell.ue22.ipv4.ip packetDropNoInterfaceFound:vector(packetBytes):sumweights 0
scalar MultiCell.ue22.ipv4.ip packetDropNoInterfaceFound:vector(packetBytes):mean -nan
scalar MultiCell.ue22.ipv4.ip packetDropNoInterfaceFound:vector(packetBytes):stddev nan
scalar MultiCell.ue22.ipv4.ip packetDropNoInterfaceFound:vector(packetBytes):min inf
scalar MultiCell.ue22.ipv4.ip packetDropNoInterfaceFound:vector(packetBytes):max -inf
scalar MultiCell.ue22.ipv4.ip packetDropNoInterfaceFound:vector(packetBytes):starttime nan
scalar MultiCell.ue22.ipv4.ip packetDropNoInterfaceFound:vector(packetBytes):endtime nan
scalar MultiCell.ue22.ipv4.ip packetDropNoRouteFound:vector(packetBytes):count 0
scalar MultiCell.ue22.ipv4.ip packetDropNoRouteFound:vector(packetBytes):sum 0
scalar MultiCell.ue22.ipv4.ip packetDropNoRouteFound:vector(packetBytes):sumweights 0
scalar MultiCell.ue22.ipv4.ip packetDropNoRouteFound:vector(packetBytes):mean -nan
scalar MultiCell.ue22.ipv4.ip packetDropNoRouteFound:vector(packetBytes):stddev nan
scalar MultiCell.ue22.ipv4.ip packetDropNoRouteFound:vector(packetBytes):min inf
scalar MultiCell.ue22.ipv4.ip packetDropNoRouteFound:vector(packetBytes):max -inf
scalar MultiCell.ue22.ipv4.ip packetDropNoRouteFound:vector(packetBytes):starttime nan
scalar MultiCell.ue22.ipv4.ip packetDropNoRouteFound:vector(packetBytes):endtime nan
scalar MultiCell.ue22.ipv4.ip packetDropUndefined:vector(packetBytes):count 0
scalar MultiCell.ue22.ipv4.ip packetDropUndefined:vector(packetBytes):sum 0
scalar MultiCell.ue22.ipv4.ip packetDropUndefined:vector(packetBytes):sumweights 0
scalar MultiCell.ue22.ipv4.ip packetDropUndefined:vector(packetBytes):mean -nan
scalar MultiCell.ue22.ipv4.ip packetDropUndefined:vector(packetBytes):stddev nan
scalar MultiCell.ue22.ipv4.ip packetDropUndefined:vector(packetBytes):min inf
scalar MultiCell.ue22.ipv4.ip packetDropUndefined:vector(packetBytes):max -inf
scalar MultiCell.ue22.ipv4.ip packetDropUndefined:vector(packetBytes):starttime nan
scalar MultiCell.ue22.ipv4.ip packetDropUndefined:vector(packetBytes):endtime nan
scalar MultiCell.ue22.ipv4.arp arpRequestSent:vector(packetBytes):count 0
scalar MultiCell.ue22.ipv4.arp arpRequestSent:vector(packetBytes):sum 0
scalar MultiCell.ue22.ipv4.arp arpRequestSent:vector(packetBytes):sumweights 0
scalar MultiCell.ue22.ipv4.arp arpRequestSent:vector(packetBytes):mean -nan
scalar MultiCell.ue22.ipv4.arp arpRequestSent:vector(packetBytes):stddev nan
scalar MultiCell.ue22.ipv4.arp arpRequestSent:vector(packetBytes):min inf
scalar MultiCell.ue22.ipv4.arp arpRequestSent:vector(packetBytes):max -inf
scalar MultiCell.ue22.ipv4.arp arpRequestSent:vector(packetBytes):starttime nan
scalar MultiCell.ue22.ipv4.arp arpRequestSent:vector(packetBytes):endtime nan
scalar MultiCell.ue22.ipv4.arp arpReplySent:vector(packetBytes):count 0
scalar MultiCell.ue22.ipv4.arp arpReplySent:vector(packetBytes):sum 0
scalar MultiCell.ue22.ipv4.arp arpReplySent:vector(packetBytes):sumweights 0
scalar MultiCell.ue22.ipv4.arp arpReplySent:vector(packetBytes):mean -nan
scalar MultiCell.ue22.ipv4.arp arpReplySent:vector(packetBytes):stddev nan
scalar MultiCell.ue22.ipv4.arp arpReplySent:vector(packetBytes):min inf
scalar MultiCell.ue22.ipv4.arp arpReplySent:vector(packetBytes):max -inf
scalar MultiCell.ue22.ipv4.arp arpReplySent:vector(packetBytes):starttime nan
scalar MultiCell.ue22.ipv4.arp arpReplySent:vector(packetBytes):endtime nan
scalar MultiCell.ue22.udp packetSent:vector(packetBytes):count 0
scalar MultiCell.ue22.udp packetSent:vector(packetBytes):sum 0
scalar MultiCell.ue22.udp packetSent:vector(packetBytes):sumweights 0
scalar MultiCell.ue22.udp packetSent:vector(packetBytes):mean -nan
scalar MultiCell.ue22.udp packetSent:vector(packetBytes):stddev nan
scalar MultiCell.ue22.udp packetSent:vector(packetBytes):min inf
scalar MultiCell.ue22.udp packetSent:vector(packetBytes):max -inf
scalar MultiCell.ue22.udp packetSent:vector(packetBytes):starttime nan
scalar MultiCell.ue22.udp packetSent:vector(packetBytes):endtime nan
scalar MultiCell.ue22.udp packetReceived:vector(packetBytes):count 0
scalar MultiCell.ue22.udp packetReceived:vector(packetBytes):sum 0
scalar MultiCell.ue22.udp packetReceived:vector(packetBytes):sumweights 0
scalar MultiCell.ue22.udp packetReceived:vector(packetBytes):mean -nan
scalar MultiCell.ue22.udp packetReceived:vector(packetBytes):stddev nan
scalar MultiCell.ue22.udp packetReceived:vector(packetBytes):min inf
scalar MultiCell.ue22.udp packetReceived:vector(packetBytes):max -inf
scalar MultiCell.ue22.udp packetReceived:vector(packetBytes):starttime nan
scalar MultiCell.ue22.udp packetReceived:vector(packetBytes):endtime nan
scalar MultiCell.ue22.udp passedUpPk:vector(count):count 0
scalar MultiCell.ue22.udp passedUpPk:vector(count):sum 0
scalar MultiCell.ue22.udp passedUpPk:vector(count):sumweights 0
scalar MultiCell.ue22.udp passedUpPk:vector(count):mean -nan
scalar MultiCell.ue22.udp passedUpPk:vector(count):stddev nan
scalar MultiCell.ue22.udp passedUpPk:vector(count):min inf
scalar MultiCell.ue22.udp passedUpPk:vector(count):max -inf
scalar MultiCell.ue22.udp passedUpPk:vector(count):starttime nan
scalar MultiCell.ue22.udp passedUpPk:vector(count):endtime nan
scalar MultiCell.ue22.udp droppedPkWrongPort:vector(count):count 0
scalar MultiCell.ue22.udp droppedPkWrongPort:vector(count):sum 0
scalar MultiCell.ue22.udp droppedPkWrongPort:vector(count):sumweights 0
scalar MultiCell.ue22.udp droppedPkWrongPort:vector(count):mean -nan
scalar MultiCell.ue22.udp droppedPkWrongPort:vector(count):stddev nan
scalar MultiCell.ue22.udp droppedPkWrongPort:vector(count):min inf
scalar MultiCell.ue22.udp droppedPkWrongPort:vector(count):max -inf
scalar MultiCell.ue22.udp droppedPkWrongPort:vector(count):starttime nan
scalar MultiCell.ue22.udp droppedPkWrongPort:vector(count):endtime nan
scalar MultiCell.ue22.udp droppedPkBadChecksum:vector(count):count 0
scalar MultiCell.ue22.udp droppedPkBadChecksum:vector(count):sum 0
scalar MultiCell.ue22.udp droppedPkBadChecksum:vector(count):sumweights 0
scalar MultiCell.ue22.udp droppedPkBadChecksum:vector(count):mean -nan
scalar MultiCell.ue22.udp droppedPkBadChecksum:vector(count):stddev nan
scalar MultiCell.ue22.udp droppedPkBadChecksum:vector(count):min inf
scalar MultiCell.ue22.udp droppedPkBadChecksum:vector(count):max -inf
scalar MultiCell.ue22.udp droppedPkBadChecksum:vector(count):starttime nan
scalar MultiCell.ue22.udp droppedPkBadChecksum:vector(count):endtime nan
scalar MultiCell.ue22.app[0] voIPFrameDelay:vector:count 0
scalar MultiCell.ue22.app[0] voIPFrameDelay:vector:sum 0
scalar MultiCell.ue22.app[0] voIPFrameDelay:vector:sumweights 0
scalar MultiCell.ue22.app[0] voIPFrameDelay:vector:mean -nan
scalar MultiCell.ue22.app[0] voIPFrameDelay:vector:stddev nan
scalar MultiCell.ue22.app[0] voIPFrameDelay:vector:min inf
scalar MultiCell.ue22.app[0] voIPFrameDelay:vector:max -inf
scalar MultiCell.ue22.app[0] voIPFrameDelay:vector:starttime nan
scalar MultiCell.ue22.app[0] voIPFrameDelay:vector:endtime nan
scalar MultiCell.ue22.app[0] voIPReceivedThroughput:vector:count 0
scalar MultiCell.ue22.app[0] voIPReceivedThroughput:vector:sum 0
scalar MultiCell.ue22.app[0] voIPReceivedThroughput:vector:sumweights 0
scalar MultiCell.ue22.app[0] voIPReceivedThroughput:vector:mean -nan
scalar MultiCell.ue22.app[0] voIPReceivedThroughput:vector:stddev nan
scalar MultiCell.ue22.app[0] voIPReceivedThroughput:vector:min inf
scalar MultiCell.ue22.app[0] voIPReceivedThroughput:vector:max -inf
scalar MultiCell.ue22.app[0] voIPReceivedThroughput:vector:starttime nan
scalar MultiCell.ue22.app[0] voIPReceivedThroughput:vector:endtime nan

