version 3
run SingleCarrier-CBR-UL-0-20260712-14:07:56-21668
attr configname SingleCarrier-CBR-UL
attr datetime 20260712-14:07:56
attr datetimef 20260712-140756
attr experiment SingleCarrier-CBR-UL
attr inifile omnetpp.ini
attr iterationvars $numUe=10
attr iterationvarsd numUe=10
attr iterationvarsf numUe=10-
attr measurement $numUe=10
attr network simu5g.simulations.nr.networks.SingleCell_Standalone
attr processid 21668
attr repetition 0
attr replication #0
attr resultdir results
attr runnumber 0
attr seedset 0
itervar numUe 10
config **.param-recording false
config image-path /home/andras/projects/Simu5G-fork/simu5g-fork/images
config output-scalar-file results/omnetpp.ini-SingleCarrier-CBR-UL-#0.sca
config output-scalar-precision 17
config output-vector-file results/omnetpp.ini-SingleCarrier-CBR-UL-#0.vec
config output-vector-precision 17
config record-eventlog false
config sim-time-limit 50s
config extends "SingleCarrier, CBR-UL"
config *.carrierAggregation.numComponentCarriers 1
config *.carrierAggregation.componentCarrier[0].carrierFrequency 2GHz
config *.carrierAggregation.componentCarrier[0].numBands 6
config *.gnb.cellularNic.numCarriers 1
config *.gnb.cellularNic.channelModel[0].componentCarrierModule "\"carrierAggregation.componentCarrier[0]\""
config *.ue[*].cellularNic.numNrCarriers 1
config *.ue[*].cellularNic.nrChannelModel[0].componentCarrierModule "\"carrierAggregation.componentCarrier[0]\""
config *.server.app[*].typename CbrReceiver
config *.server.app[*].localPort 1000+ancestorIndex(0)
config *.ue[*].app[*].destAddress "\"server\""
config *.ue[*].app[*].localPort 3088+ancestorIndex(0)
config *.ue[*].app[*].destPort 1000+ancestorIndex(1)
config *.ue[*].app[*].typename CbrSender
config *.ue[*].app[*].startTime uniform(0s,0.02s)
config *.ue[*].app[*].packetSize 2000B
config sim-time-limit 50s
config network simu5g.simulations.nr.networks.SingleCell_Standalone
config **.routingRecorder.enabled false
config seed-set 0
config **.sctp.**.scalar-recording false
config **.sctp.**.vector-recording false
config **.vector-recording true
config **.mobility.constraintAreaMinZ 0m
config **.mobility.constraintAreaMaxZ 0m
config **.mobility.initFromDisplayString false
config **.eNodeBTxPower 40dBm
config **.sctp.nagleEnabled false
config **.sctp.enableHeartbeats false
config **.downlinkInterference true
config **.uplinkInterference true
config **.enableHandover true
config **.fbPeriod 10tti
config **.targetBler 0.01
config **.blerShift 5
config *.configurator.config "xmldoc(\"./demo.xml\")"
config *.gnb.mobility.initialX 300m
config *.gnb.mobility.initialY 300m
config *.numUe 10
config *.ue[*].servingNodeId 0
config *.ue[*].nrServingNodeId 1
config **.mobility.constraintAreaMaxX 700m
config **.mobility.constraintAreaMaxY 400m
config **.mobility.constraintAreaMinX 100m
config **.mobility.constraintAreaMinY 200m
config *.ue[*].mobility.typename RandomWaypointMobility
config *.ue[*].mobility.initialX uniform(100m,500m)
config *.ue[*].mobility.initialY uniform(200m,400m)
config *.ue[*].mobility.speed uniform(5mps,15mps)
config *.ue[*].numApps 1
config *.server.numApps 10
config output-scalar-file results/SingleCarrier-CBR-UL/$numUe=10-0.sca
config output-vector-file results/SingleCarrier-CBR-UL/$numUe=10-0.vec

scalar SingleCell_Standalone.server.lo[0].lo rcvdPkFromHl:count 0
scalar SingleCell_Standalone.server.lo[0].lo rcvdPkFromHl:sum(packetBytes) 0
scalar SingleCell_Standalone.server.lo[0].lo passedUpPk:count 0
scalar SingleCell_Standalone.server.lo[0].lo passedUpPk:sum(packetBytes) 0
scalar SingleCell_Standalone.server.lo[0] packetDropInterfaceDown:count 0
scalar SingleCell_Standalone.server.lo[0] packetDropInterfaceDown:sum(packetBytes) 0
scalar SingleCell_Standalone.server.lo[0] packetDropNoCarrier:count 0
scalar SingleCell_Standalone.server.lo[0] packetDropNoCarrier:sum(packetBytes) 0
scalar SingleCell_Standalone.server.ppp[0].queue queueLength:last 0
scalar SingleCell_Standalone.server.ppp[0].queue queueLength:max 0
scalar SingleCell_Standalone.server.ppp[0].queue queueLength:timeavg 0
scalar SingleCell_Standalone.server.ppp[0].queue queueBitLength:last 0
scalar SingleCell_Standalone.server.ppp[0].queue queueBitLength:max 0
scalar SingleCell_Standalone.server.ppp[0].queue queueBitLength:timeavg 0
scalar SingleCell_Standalone.server.ppp[0].queue outgoingPackets:count 0
scalar SingleCell_Standalone.server.ppp[0].queue outgoingPacketLengths:sum 0
scalar SingleCell_Standalone.server.ppp[0].queue incomingPackets:count 0
scalar SingleCell_Standalone.server.ppp[0].queue incomingPacketLengths:sum 0
scalar SingleCell_Standalone.server.ppp[0].queue droppedPacketsQueueOverflow:count 0
scalar SingleCell_Standalone.server.ppp[0].queue droppedPacketLengthsQueueOverflow:sum 0
scalar SingleCell_Standalone.server.ppp[0].ppp transmissionState:timeavg 0
scalar SingleCell_Standalone.server.ppp[0].ppp rxPkOk:count 39615
scalar SingleCell_Standalone.server.ppp[0].ppp rxPkOk:sum(packetBytes) 40787373
scalar SingleCell_Standalone.server.ppp[0].ppp txPk:count 0
scalar SingleCell_Standalone.server.ppp[0].ppp txPk:sum(packetBytes) 0
scalar SingleCell_Standalone.server.ppp[0].ppp rcvdPkFromHl:count 0
scalar SingleCell_Standalone.server.ppp[0].ppp rcvdPkFromHl:sum(packetBytes) 0
scalar SingleCell_Standalone.server.ppp[0].ppp passedUpPk:count 39615
scalar SingleCell_Standalone.server.ppp[0].ppp passedUpPk:sum(packetBytes) 40510068
scalar SingleCell_Standalone.server.ppp[0].ppp packetDropIncorrectlyReceived:count 0
scalar SingleCell_Standalone.server.ppp[0].ppp packetDropIncorrectlyReceived:sum(packetBytes) 0
scalar SingleCell_Standalone.server.ppp[0].ppp packetDropInterfaceDown:count 0
scalar SingleCell_Standalone.server.ppp[0].ppp packetDropInterfaceDown:sum(packetBytes) 0
scalar SingleCell_Standalone.server.ppp[0] packetDropInterfaceDown:count 0
scalar SingleCell_Standalone.server.ppp[0] packetDropInterfaceDown:sum(packetBytes) 0
scalar SingleCell_Standalone.server.ppp[0] packetDropNoCarrier:count 0
scalar SingleCell_Standalone.server.ppp[0] packetDropNoCarrier:sum(packetBytes) 0
scalar SingleCell_Standalone.server.ipv4.ip packetDropAddressResolutionFailed:count 0
scalar SingleCell_Standalone.server.ipv4.ip packetDropAddressResolutionFailed:sum(packetBytes) 0
scalar SingleCell_Standalone.server.ipv4.ip packetDropHopLimitReached:count 0
scalar SingleCell_Standalone.server.ipv4.ip packetDropHopLimitReached:sum(packetBytes) 0
scalar SingleCell_Standalone.server.ipv4.ip packetDropForwardingDisabled:count 0
scalar SingleCell_Standalone.server.ipv4.ip packetDropForwardingDisabled:sum(packetBytes) 0
scalar SingleCell_Standalone.server.ipv4.ip packetDropNoInterfaceFound:count 0
scalar SingleCell_Standalone.server.ipv4.ip packetDropNoInterfaceFound:sum(packetBytes) 0
scalar SingleCell_Standalone.server.ipv4.ip packetDropNoRouteFound:count 0
scalar SingleCell_Standalone.server.ipv4.ip packetDropNoRouteFound:sum(packetBytes) 0
scalar SingleCell_Standalone.server.ipv4.ip packetDropUndefined:count 0
scalar SingleCell_Standalone.server.ipv4.ip packetDropUndefined:sum(packetBytes) 0
scalar SingleCell_Standalone.server.ipv4.arp arpResolutionFailed:count 0
scalar SingleCell_Standalone.server.ipv4.arp arpResolutionCompleted:count 0
scalar SingleCell_Standalone.server.ipv4.arp arpResolutionInitiated:count 0
scalar SingleCell_Standalone.server.ipv4.arp arpReplySent:count 0
scalar SingleCell_Standalone.server.ipv4.arp arpReplySent:sum(packetBytes) 0
scalar SingleCell_Standalone.server.ipv4.arp arpRequestSent:count 0
scalar SingleCell_Standalone.server.ipv4.arp arpRequestSent:sum(packetBytes) 0
scalar SingleCell_Standalone.server.udp packetReceived:count 19491
scalar SingleCell_Standalone.server.udp packetReceived:sum(packetBytes) 39137928
scalar SingleCell_Standalone.server.udp packetSent:count 0
scalar SingleCell_Standalone.server.udp packetSent:sum(packetBytes) 0
scalar SingleCell_Standalone.server.udp passedUpPk:count 19491
scalar SingleCell_Standalone.server.udp droppedPkWrongPort:count 0
scalar SingleCell_Standalone.server.udp droppedPkBadChecksum:count 0
scalar SingleCell_Standalone.server.app[0] cbrReceivedBytes:mean 2000
scalar SingleCell_Standalone.server.app[0] cbrReceivedBytes:sum 4518000
scalar SingleCell_Standalone.server.app[0] cbrReceivedThroughput:simu5g_rateavg 90360
scalar SingleCell_Standalone.server.app[0] cbrJitter:mean -nan
scalar SingleCell_Standalone.server.app[0] cbrFrameDelay:mean 0.49426572225669041
scalar SingleCell_Standalone.server.app[0] cbrFrameLoss:mean 0
scalar SingleCell_Standalone.server.app[1] cbrReceivedBytes:mean 2000
scalar SingleCell_Standalone.server.app[1] cbrReceivedBytes:sum 3292000
scalar SingleCell_Standalone.server.app[1] cbrReceivedThroughput:simu5g_rateavg 65840
scalar SingleCell_Standalone.server.app[1] cbrJitter:mean -nan
scalar SingleCell_Standalone.server.app[1] cbrFrameDelay:mean 0.96129847414239478
scalar SingleCell_Standalone.server.app[1] cbrFrameLoss:mean 0
scalar SingleCell_Standalone.server.app[2] cbrReceivedBytes:mean 2000
scalar SingleCell_Standalone.server.app[2] cbrReceivedBytes:sum 4190000
scalar SingleCell_Standalone.server.app[2] cbrReceivedThroughput:simu5g_rateavg 83800
scalar SingleCell_Standalone.server.app[2] cbrJitter:mean -nan
scalar SingleCell_Standalone.server.app[2] cbrFrameDelay:mean 1.6326591501731937
scalar SingleCell_Standalone.server.app[2] cbrFrameLoss:mean 0
scalar SingleCell_Standalone.server.app[3] cbrReceivedBytes:mean 2000
scalar SingleCell_Standalone.server.app[3] cbrReceivedBytes:sum 4518000
scalar SingleCell_Standalone.server.app[3] cbrReceivedThroughput:simu5g_rateavg 90360
scalar SingleCell_Standalone.server.app[3] cbrJitter:mean -nan
scalar SingleCell_Standalone.server.app[3] cbrFrameDelay:mean 5.9473563394108018
scalar SingleCell_Standalone.server.app[3] cbrFrameLoss:mean 0
scalar SingleCell_Standalone.server.app[4] cbrReceivedBytes:mean 2000
scalar SingleCell_Standalone.server.app[4] cbrReceivedBytes:sum 2410000
scalar SingleCell_Standalone.server.app[4] cbrReceivedThroughput:simu5g_rateavg 48200
scalar SingleCell_Standalone.server.app[4] cbrJitter:mean -nan
scalar SingleCell_Standalone.server.app[4] cbrFrameDelay:mean 2.0313557304041288
scalar SingleCell_Standalone.server.app[4] cbrFrameLoss:mean 0
scalar SingleCell_Standalone.server.app[5] cbrReceivedBytes:mean 2000
scalar SingleCell_Standalone.server.app[5] cbrReceivedBytes:sum 3630000
scalar SingleCell_Standalone.server.app[5] cbrReceivedThroughput:simu5g_rateavg 72600
scalar SingleCell_Standalone.server.app[5] cbrJitter:mean -nan
scalar SingleCell_Standalone.server.app[5] cbrFrameDelay:mean 12.927699472489603
scalar SingleCell_Standalone.server.app[5] cbrFrameLoss:mean 0
scalar SingleCell_Standalone.server.app[6] cbrReceivedBytes:mean 2000
scalar SingleCell_Standalone.server.app[6] cbrReceivedBytes:sum 4890000
scalar SingleCell_Standalone.server.app[6] cbrReceivedThroughput:simu5g_rateavg 97800
scalar SingleCell_Standalone.server.app[6] cbrJitter:mean -nan
scalar SingleCell_Standalone.server.app[6] cbrFrameDelay:mean 0.071036550272766716
scalar SingleCell_Standalone.server.app[6] cbrFrameLoss:mean 0
scalar SingleCell_Standalone.server.app[7] cbrReceivedBytes:mean 2000
scalar SingleCell_Standalone.server.app[7] cbrReceivedBytes:sum 1758000
scalar SingleCell_Standalone.server.app[7] cbrReceivedThroughput:simu5g_rateavg 35160
scalar SingleCell_Standalone.server.app[7] cbrJitter:mean -nan
scalar SingleCell_Standalone.server.app[7] cbrFrameDelay:mean 9.0891770483856558
scalar SingleCell_Standalone.server.app[7] cbrFrameLoss:mean 0
scalar SingleCell_Standalone.server.app[8] cbrReceivedBytes:mean 2000
scalar SingleCell_Standalone.server.app[8] cbrReceivedBytes:sum 4872000
scalar SingleCell_Standalone.server.app[8] cbrReceivedThroughput:simu5g_rateavg 97440
scalar SingleCell_Standalone.server.app[8] cbrJitter:mean -nan
scalar SingleCell_Standalone.server.app[8] cbrFrameDelay:mean 1.6984897541345183
scalar SingleCell_Standalone.server.app[8] cbrFrameLoss:mean 0
scalar SingleCell_Standalone.server.app[9] cbrReceivedBytes:mean 2000
scalar SingleCell_Standalone.server.app[9] cbrReceivedBytes:sum 4904000
scalar SingleCell_Standalone.server.app[9] cbrReceivedThroughput:simu5g_rateavg 98080
scalar SingleCell_Standalone.server.app[9] cbrJitter:mean -nan
scalar SingleCell_Standalone.server.app[9] cbrFrameDelay:mean 0.11399775715594675
scalar SingleCell_Standalone.server.app[9] cbrFrameLoss:mean 0
scalar SingleCell_Standalone.router.lo[0].lo rcvdPkFromHl:count 0
scalar SingleCell_Standalone.router.lo[0].lo rcvdPkFromHl:sum(packetBytes) 0
scalar SingleCell_Standalone.router.lo[0].lo passedUpPk:count 0
scalar SingleCell_Standalone.router.lo[0].lo passedUpPk:sum(packetBytes) 0
scalar SingleCell_Standalone.router.lo[0] packetDropInterfaceDown:count 0
scalar SingleCell_Standalone.router.lo[0] packetDropInterfaceDown:sum(packetBytes) 0
scalar SingleCell_Standalone.router.lo[0] packetDropNoCarrier:count 0
scalar SingleCell_Standalone.router.lo[0] packetDropNoCarrier:sum(packetBytes) 0
scalar SingleCell_Standalone.router.ppp[0].queue queueLength:last 0
scalar SingleCell_Standalone.router.ppp[0].queue queueLength:max 2
scalar SingleCell_Standalone.router.ppp[0].queue queueLength:timeavg 0.00010380608000000741
scalar SingleCell_Standalone.router.ppp[0].queue queueBitLength:last 0
scalar SingleCell_Standalone.router.ppp[0].queue queueBitLength:max 8768
scalar SingleCell_Standalone.router.ppp[0].queue queueBitLength:timeavg 0.4550858547199973
scalar SingleCell_Standalone.router.ppp[0].queue outgoingPackets:count 39615
scalar SingleCell_Standalone.router.ppp[0].queue outgoingPacketLengths:sum 324080544
scalar SingleCell_Standalone.router.ppp[0].queue incomingPackets:count 39615
scalar SingleCell_Standalone.router.ppp[0].queue incomingPacketLengths:sum 324080544
scalar SingleCell_Standalone.router.ppp[0].queue droppedPacketsQueueOverflow:count 0
scalar SingleCell_Standalone.router.ppp[0].queue droppedPacketLengthsQueueOverflow:sum 0
scalar SingleCell_Standalone.router.ppp[0].ppp transmissionState:timeavg 0.00065259796800012525
scalar SingleCell_Standalone.router.ppp[0].ppp rxPkOk:count 0
scalar SingleCell_Standalone.router.ppp[0].ppp rxPkOk:sum(packetBytes) 0
scalar SingleCell_Standalone.router.ppp[0].ppp txPk:count 39615
scalar SingleCell_Standalone.router.ppp[0].ppp txPk:sum(packetBytes) 40787373
scalar SingleCell_Standalone.router.ppp[0].ppp rcvdPkFromHl:count 39615
scalar SingleCell_Standalone.router.ppp[0].ppp rcvdPkFromHl:sum(packetBytes) 40510068
scalar SingleCell_Standalone.router.ppp[0].ppp passedUpPk:count 0
scalar SingleCell_Standalone.router.ppp[0].ppp passedUpPk:sum(packetBytes) 0
scalar SingleCell_Standalone.router.ppp[0].ppp packetDropIncorrectlyReceived:count 0
scalar SingleCell_Standalone.router.ppp[0].ppp packetDropIncorrectlyReceived:sum(packetBytes) 0
scalar SingleCell_Standalone.router.ppp[0].ppp packetDropInterfaceDown:count 0
scalar SingleCell_Standalone.router.ppp[0].ppp packetDropInterfaceDown:sum(packetBytes) 0
scalar SingleCell_Standalone.router.ppp[0] packetDropInterfaceDown:count 0
scalar SingleCell_Standalone.router.ppp[0] packetDropInterfaceDown:sum(packetBytes) 0
scalar SingleCell_Standalone.router.ppp[0] packetDropNoCarrier:count 0
scalar SingleCell_Standalone.router.ppp[0] packetDropNoCarrier:sum(packetBytes) 0
scalar SingleCell_Standalone.router.ppp[1].queue queueLength:last 0
scalar SingleCell_Standalone.router.ppp[1].queue queueLength:max 0
scalar SingleCell_Standalone.router.ppp[1].queue queueLength:timeavg 0
scalar SingleCell_Standalone.router.ppp[1].queue queueBitLength:last 0
scalar SingleCell_Standalone.router.ppp[1].queue queueBitLength:max 0
scalar SingleCell_Standalone.router.ppp[1].queue queueBitLength:timeavg 0
scalar SingleCell_Standalone.router.ppp[1].queue outgoingPackets:count 0
scalar SingleCell_Standalone.router.ppp[1].queue outgoingPacketLengths:sum 0
scalar SingleCell_Standalone.router.ppp[1].queue incomingPackets:count 0
scalar SingleCell_Standalone.router.ppp[1].queue incomingPacketLengths:sum 0
scalar SingleCell_Standalone.router.ppp[1].queue droppedPacketsQueueOverflow:count 0
scalar SingleCell_Standalone.router.ppp[1].queue droppedPacketLengthsQueueOverflow:sum 0
scalar SingleCell_Standalone.router.ppp[1].ppp transmissionState:timeavg 0
scalar SingleCell_Standalone.router.ppp[1].ppp rxPkOk:count 39615
scalar SingleCell_Standalone.router.ppp[1].ppp rxPkOk:sum(packetBytes) 40787373
scalar SingleCell_Standalone.router.ppp[1].ppp txPk:count 0
scalar SingleCell_Standalone.router.ppp[1].ppp txPk:sum(packetBytes) 0
scalar SingleCell_Standalone.router.ppp[1].ppp rcvdPkFromHl:count 0
scalar SingleCell_Standalone.router.ppp[1].ppp rcvdPkFromHl:sum(packetBytes) 0
scalar SingleCell_Standalone.router.ppp[1].ppp passedUpPk:count 39615
scalar SingleCell_Standalone.router.ppp[1].ppp passedUpPk:sum(packetBytes) 40510068
scalar SingleCell_Standalone.router.ppp[1].ppp packetDropIncorrectlyReceived:count 0
scalar SingleCell_Standalone.router.ppp[1].ppp packetDropIncorrectlyReceived:sum(packetBytes) 0
scalar SingleCell_Standalone.router.ppp[1].ppp packetDropInterfaceDown:count 0
scalar SingleCell_Standalone.router.ppp[1].ppp packetDropInterfaceDown:sum(packetBytes) 0
scalar SingleCell_Standalone.router.ppp[1] packetDropInterfaceDown:count 0
scalar SingleCell_Standalone.router.ppp[1] packetDropInterfaceDown:sum(packetBytes) 0
scalar SingleCell_Standalone.router.ppp[1] packetDropNoCarrier:count 0
scalar SingleCell_Standalone.router.ppp[1] packetDropNoCarrier:sum(packetBytes) 0
scalar SingleCell_Standalone.router.ipv4.ip packetDropAddressResolutionFailed:count 0
scalar SingleCell_Standalone.router.ipv4.ip packetDropAddressResolutionFailed:sum(packetBytes) 0
scalar SingleCell_Standalone.router.ipv4.ip packetDropHopLimitReached:count 0
scalar SingleCell_Standalone.router.ipv4.ip packetDropHopLimitReached:sum(packetBytes) 0
scalar SingleCell_Standalone.router.ipv4.ip packetDropForwardingDisabled:count 0
scalar SingleCell_Standalone.router.ipv4.ip packetDropForwardingDisabled:sum(packetBytes) 0
scalar SingleCell_Standalone.router.ipv4.ip packetDropNoInterfaceFound:count 0
scalar SingleCell_Standalone.router.ipv4.ip packetDropNoInterfaceFound:sum(packetBytes) 0
scalar SingleCell_Standalone.router.ipv4.ip packetDropNoRouteFound:count 0
scalar SingleCell_Standalone.router.ipv4.ip packetDropNoRouteFound:sum(packetBytes) 0
scalar SingleCell_Standalone.router.ipv4.ip packetDropUndefined:count 0
scalar SingleCell_Standalone.router.ipv4.ip packetDropUndefined:sum(packetBytes) 0
scalar SingleCell_Standalone.router.ipv4.arp arpResolutionFailed:count 0
scalar SingleCell_Standalone.router.ipv4.arp arpResolutionCompleted:count 0
scalar SingleCell_Standalone.router.ipv4.arp arpResolutionInitiated:count 0
scalar SingleCell_Standalone.router.ipv4.arp arpReplySent:count 0
scalar SingleCell_Standalone.router.ipv4.arp arpReplySent:sum(packetBytes) 0
scalar SingleCell_Standalone.router.ipv4.arp arpRequestSent:count 0
scalar SingleCell_Standalone.router.ipv4.arp arpRequestSent:sum(packetBytes) 0
scalar SingleCell_Standalone.upf.lo[0].lo rcvdPkFromHl:count 0
scalar SingleCell_Standalone.upf.lo[0].lo rcvdPkFromHl:sum(packetBytes) 0
scalar SingleCell_Standalone.upf.lo[0].lo passedUpPk:count 0
scalar SingleCell_Standalone.upf.lo[0].lo passedUpPk:sum(packetBytes) 0
scalar SingleCell_Standalone.upf.lo[0] packetDropInterfaceDown:count 0
scalar SingleCell_Standalone.upf.lo[0] packetDropInterfaceDown:sum(packetBytes) 0
scalar SingleCell_Standalone.upf.lo[0] packetDropNoCarrier:count 0
scalar SingleCell_Standalone.upf.lo[0] packetDropNoCarrier:sum(packetBytes) 0
scalar SingleCell_Standalone.upf.ppp[0].queue queueLength:last 0
scalar SingleCell_Standalone.upf.ppp[0].queue queueLength:max 0
scalar SingleCell_Standalone.upf.ppp[0].queue queueLength:timeavg 0
scalar SingleCell_Standalone.upf.ppp[0].queue queueBitLength:last 0
scalar SingleCell_Standalone.upf.ppp[0].queue queueBitLength:max 0
scalar SingleCell_Standalone.upf.ppp[0].queue queueBitLength:timeavg 0
scalar SingleCell_Standalone.upf.ppp[0].queue outgoingPackets:count 0
scalar SingleCell_Standalone.upf.ppp[0].queue outgoingPacketLengths:sum 0
scalar SingleCell_Standalone.upf.ppp[0].queue incomingPackets:count 0
scalar SingleCell_Standalone.upf.ppp[0].queue incomingPacketLengths:sum 0
scalar SingleCell_Standalone.upf.ppp[0].queue droppedPacketsQueueOverflow:count 0
scalar SingleCell_Standalone.upf.ppp[0].queue droppedPacketLengthsQueueOverflow:sum 0
scalar SingleCell_Standalone.upf.ppp[0].ppp transmissionState:timeavg 0
scalar SingleCell_Standalone.upf.ppp[0].ppp rxPkOk:count 39615
scalar SingleCell_Standalone.upf.ppp[0].ppp rxPkOk:sum(packetBytes) 42213513
scalar SingleCell_Standalone.upf.ppp[0].ppp txPk:count 0
scalar SingleCell_Standalone.upf.ppp[0].ppp txPk:sum(packetBytes) 0
scalar SingleCell_Standalone.upf.ppp[0].ppp rcvdPkFromHl:count 0
scalar SingleCell_Standalone.upf.ppp[0].ppp rcvdPkFromHl:sum(packetBytes) 0
scalar SingleCell_Standalone.upf.ppp[0].ppp passedUpPk:count 39615
scalar SingleCell_Standalone.upf.ppp[0].ppp passedUpPk:sum(packetBytes) 41936208
scalar SingleCell_Standalone.upf.ppp[0].ppp packetDropIncorrectlyReceived:count 0
scalar SingleCell_Standalone.upf.ppp[0].ppp packetDropIncorrectlyReceived:sum(packetBytes) 0
scalar SingleCell_Standalone.upf.ppp[0].ppp packetDropInterfaceDown:count 0
scalar SingleCell_Standalone.upf.ppp[0].ppp packetDropInterfaceDown:sum(packetBytes) 0
scalar SingleCell_Standalone.upf.ppp[0] packetDropInterfaceDown:count 0
scalar SingleCell_Standalone.upf.ppp[0] packetDropInterfaceDown:sum(packetBytes) 0
scalar SingleCell_Standalone.upf.ppp[0] packetDropNoCarrier:count 0
scalar SingleCell_Standalone.upf.ppp[0] packetDropNoCarrier:sum(packetBytes) 0
scalar SingleCell_Standalone.upf.ipv4.ip packetDropAddressResolutionFailed:count 0
scalar SingleCell_Standalone.upf.ipv4.ip packetDropAddressResolutionFailed:sum(packetBytes) 0
scalar SingleCell_Standalone.upf.ipv4.ip packetDropHopLimitReached:count 0
scalar SingleCell_Standalone.upf.ipv4.ip packetDropHopLimitReached:sum(packetBytes) 0
scalar SingleCell_Standalone.upf.ipv4.ip packetDropForwardingDisabled:count 0
scalar SingleCell_Standalone.upf.ipv4.ip packetDropForwardingDisabled:sum(packetBytes) 0
scalar SingleCell_Standalone.upf.ipv4.ip packetDropNoInterfaceFound:count 0
scalar SingleCell_Standalone.upf.ipv4.ip packetDropNoInterfaceFound:sum(packetBytes) 0
scalar SingleCell_Standalone.upf.ipv4.ip packetDropNoRouteFound:count 0
scalar SingleCell_Standalone.upf.ipv4.ip packetDropNoRouteFound:sum(packetBytes) 0
scalar SingleCell_Standalone.upf.ipv4.ip packetDropUndefined:count 0
scalar SingleCell_Standalone.upf.ipv4.ip packetDropUndefined:sum(packetBytes) 0
scalar SingleCell_Standalone.upf.ipv4.arp arpResolutionFailed:count 0
scalar SingleCell_Standalone.upf.ipv4.arp arpResolutionCompleted:count 0
scalar SingleCell_Standalone.upf.ipv4.arp arpResolutionInitiated:count 0
scalar SingleCell_Standalone.upf.ipv4.arp arpReplySent:count 0
scalar SingleCell_Standalone.upf.ipv4.arp arpReplySent:sum(packetBytes) 0
scalar SingleCell_Standalone.upf.ipv4.arp arpRequestSent:count 0
scalar SingleCell_Standalone.upf.ipv4.arp arpRequestSent:sum(packetBytes) 0
scalar SingleCell_Standalone.upf.pppIf.queue queueLength:last 0
scalar SingleCell_Standalone.upf.pppIf.queue queueLength:max 2
scalar SingleCell_Standalone.upf.pppIf.queue queueLength:timeavg 9.9797696000008745e-05
scalar SingleCell_Standalone.upf.pppIf.queue queueBitLength:last 0
scalar SingleCell_Standalone.upf.pppIf.queue queueBitLength:max 8768
scalar SingleCell_Standalone.upf.pppIf.queue queueBitLength:timeavg 0.43751309926406701
scalar SingleCell_Standalone.upf.pppIf.queue outgoingPackets:count 39615
scalar SingleCell_Standalone.upf.pppIf.queue outgoingPacketLengths:sum 324080544
scalar SingleCell_Standalone.upf.pppIf.queue incomingPackets:count 39615
scalar SingleCell_Standalone.upf.pppIf.queue incomingPacketLengths:sum 324080544
scalar SingleCell_Standalone.upf.pppIf.queue droppedPacketsQueueOverflow:count 0
scalar SingleCell_Standalone.upf.pppIf.queue droppedPacketLengthsQueueOverflow:sum 0
scalar SingleCell_Standalone.upf.pppIf.ppp transmissionState:timeavg 0.00065259796800012525
scalar SingleCell_Standalone.upf.pppIf.ppp rxPkOk:count 0
scalar SingleCell_Standalone.upf.pppIf.ppp rxPkOk:sum(packetBytes) 0
scalar SingleCell_Standalone.upf.pppIf.ppp txPk:count 39615
scalar SingleCell_Standalone.upf.pppIf.ppp txPk:sum(packetBytes) 40787373
scalar SingleCell_Standalone.upf.pppIf.ppp rcvdPkFromHl:count 39615
scalar SingleCell_Standalone.upf.pppIf.ppp rcvdPkFromHl:sum(packetBytes) 40510068
scalar SingleCell_Standalone.upf.pppIf.ppp passedUpPk:count 0
scalar SingleCell_Standalone.upf.pppIf.ppp passedUpPk:sum(packetBytes) 0
scalar SingleCell_Standalone.upf.pppIf.ppp packetDropIncorrectlyReceived:count 0
scalar SingleCell_Standalone.upf.pppIf.ppp packetDropIncorrectlyReceived:sum(packetBytes) 0
scalar SingleCell_Standalone.upf.pppIf.ppp packetDropInterfaceDown:count 0
scalar SingleCell_Standalone.upf.pppIf.ppp packetDropInterfaceDown:sum(packetBytes) 0
scalar SingleCell_Standalone.upf.pppIf packetDropInterfaceDown:count 0
scalar SingleCell_Standalone.upf.pppIf packetDropInterfaceDown:sum(packetBytes) 0
scalar SingleCell_Standalone.upf.pppIf packetDropNoCarrier:count 0
scalar SingleCell_Standalone.upf.pppIf packetDropNoCarrier:sum(packetBytes) 0
scalar SingleCell_Standalone.upf.udp packetReceived:count 39615
scalar SingleCell_Standalone.upf.udp packetReceived:sum(packetBytes) 41143908
scalar SingleCell_Standalone.upf.udp packetSent:count 0
scalar SingleCell_Standalone.upf.udp packetSent:sum(packetBytes) 0
scalar SingleCell_Standalone.upf.udp passedUpPk:count 39615
scalar SingleCell_Standalone.upf.udp droppedPkWrongPort:count 0
scalar SingleCell_Standalone.upf.udp droppedPkBadChecksum:count 0
scalar SingleCell_Standalone.iUpf.lo[0].lo rcvdPkFromHl:count 0
scalar SingleCell_Standalone.iUpf.lo[0].lo rcvdPkFromHl:sum(packetBytes) 0
scalar SingleCell_Standalone.iUpf.lo[0].lo passedUpPk:count 0
scalar SingleCell_Standalone.iUpf.lo[0].lo passedUpPk:sum(packetBytes) 0
scalar SingleCell_Standalone.iUpf.lo[0] packetDropInterfaceDown:count 0
scalar SingleCell_Standalone.iUpf.lo[0] packetDropInterfaceDown:sum(packetBytes) 0
scalar SingleCell_Standalone.iUpf.lo[0] packetDropNoCarrier:count 0
scalar SingleCell_Standalone.iUpf.lo[0] packetDropNoCarrier:sum(packetBytes) 0
scalar SingleCell_Standalone.iUpf.ppp[0].queue queueLength:last 0
scalar SingleCell_Standalone.iUpf.ppp[0].queue queueLength:max 2
scalar SingleCell_Standalone.iUpf.ppp[0].queue queueLength:timeavg 0.00010380608000000735
scalar SingleCell_Standalone.iUpf.ppp[0].queue queueBitLength:last 0
scalar SingleCell_Standalone.iUpf.ppp[0].queue queueBitLength:max 9344
scalar SingleCell_Standalone.iUpf.ppp[0].queue queueBitLength:timeavg 0.48498200576001466
scalar SingleCell_Standalone.iUpf.ppp[0].queue outgoingPackets:count 39615
scalar SingleCell_Standalone.iUpf.ppp[0].queue outgoingPacketLengths:sum 335489664
scalar SingleCell_Standalone.iUpf.ppp[0].queue incomingPackets:count 39615
scalar SingleCell_Standalone.iUpf.ppp[0].queue incomingPacketLengths:sum 335489664
scalar SingleCell_Standalone.iUpf.ppp[0].queue droppedPacketsQueueOverflow:count 0
scalar SingleCell_Standalone.iUpf.ppp[0].queue droppedPacketLengthsQueueOverflow:sum 0
scalar SingleCell_Standalone.iUpf.ppp[0].ppp transmissionState:timeavg 0.00067541620800042241
scalar SingleCell_Standalone.iUpf.ppp[0].ppp rxPkOk:count 0
scalar SingleCell_Standalone.iUpf.ppp[0].ppp rxPkOk:sum(packetBytes) 0
scalar SingleCell_Standalone.iUpf.ppp[0].ppp txPk:count 39615
scalar SingleCell_Standalone.iUpf.ppp[0].ppp txPk:sum(packetBytes) 42213513
scalar SingleCell_Standalone.iUpf.ppp[0].ppp rcvdPkFromHl:count 39615
scalar SingleCell_Standalone.iUpf.ppp[0].ppp rcvdPkFromHl:sum(packetBytes) 41936208
scalar SingleCell_Standalone.iUpf.ppp[0].ppp passedUpPk:count 0
scalar SingleCell_Standalone.iUpf.ppp[0].ppp passedUpPk:sum(packetBytes) 0
scalar SingleCell_Standalone.iUpf.ppp[0].ppp packetDropIncorrectlyReceived:count 0
scalar SingleCell_Standalone.iUpf.ppp[0].ppp packetDropIncorrectlyReceived:sum(packetBytes) 0
scalar SingleCell_Standalone.iUpf.ppp[0].ppp packetDropInterfaceDown:count 0
scalar SingleCell_Standalone.iUpf.ppp[0].ppp packetDropInterfaceDown:sum(packetBytes) 0
scalar SingleCell_Standalone.iUpf.ppp[0] packetDropInterfaceDown:count 0
scalar SingleCell_Standalone.iUpf.ppp[0] packetDropInterfaceDown:sum(packetBytes) 0
scalar SingleCell_Standalone.iUpf.ppp[0] packetDropNoCarrier:count 0
scalar SingleCell_Standalone.iUpf.ppp[0] packetDropNoCarrier:sum(packetBytes) 0
scalar SingleCell_Standalone.iUpf.ppp[1].queue queueLength:last 0
scalar SingleCell_Standalone.iUpf.ppp[1].queue queueLength:max 0
scalar SingleCell_Standalone.iUpf.ppp[1].queue queueLength:timeavg 0
scalar SingleCell_Standalone.iUpf.ppp[1].queue queueBitLength:last 0
scalar SingleCell_Standalone.iUpf.ppp[1].queue queueBitLength:max 0
scalar SingleCell_Standalone.iUpf.ppp[1].queue queueBitLength:timeavg 0
scalar SingleCell_Standalone.iUpf.ppp[1].queue outgoingPackets:count 0
scalar SingleCell_Standalone.iUpf.ppp[1].queue outgoingPacketLengths:sum 0
scalar SingleCell_Standalone.iUpf.ppp[1].queue incomingPackets:count 0
scalar SingleCell_Standalone.iUpf.ppp[1].queue incomingPacketLengths:sum 0
scalar SingleCell_Standalone.iUpf.ppp[1].queue droppedPacketsQueueOverflow:count 0
scalar SingleCell_Standalone.iUpf.ppp[1].queue droppedPacketLengthsQueueOverflow:sum 0
scalar SingleCell_Standalone.iUpf.ppp[1].ppp transmissionState:timeavg 0
scalar SingleCell_Standalone.iUpf.ppp[1].ppp rxPkOk:count 39615
scalar SingleCell_Standalone.iUpf.ppp[1].ppp rxPkOk:sum(packetBytes) 42213513
scalar SingleCell_Standalone.iUpf.ppp[1].ppp txPk:count 0
scalar SingleCell_Standalone.iUpf.ppp[1].ppp txPk:sum(packetBytes) 0
scalar SingleCell_Standalone.iUpf.ppp[1].ppp rcvdPkFromHl:count 0
scalar SingleCell_Standalone.iUpf.ppp[1].ppp rcvdPkFromHl:sum(packetBytes) 0
scalar SingleCell_Standalone.iUpf.ppp[1].ppp passedUpPk:count 39615
scalar SingleCell_Standalone.iUpf.ppp[1].ppp passedUpPk:sum(packetBytes) 41936208
scalar SingleCell_Standalone.iUpf.ppp[1].ppp packetDropIncorrectlyReceived:count 0
scalar SingleCell_Standalone.iUpf.ppp[1].ppp packetDropIncorrectlyReceived:sum(packetBytes) 0
scalar SingleCell_Standalone.iUpf.ppp[1].ppp packetDropInterfaceDown:count 0
scalar SingleCell_Standalone.iUpf.ppp[1].ppp packetDropInterfaceDown:sum(packetBytes) 0
scalar SingleCell_Standalone.iUpf.ppp[1] packetDropInterfaceDown:count 0
scalar SingleCell_Standalone.iUpf.ppp[1] packetDropInterfaceDown:sum(packetBytes) 0
scalar SingleCell_Standalone.iUpf.ppp[1] packetDropNoCarrier:count 0
scalar SingleCell_Standalone.iUpf.ppp[1] packetDropNoCarrier:sum(packetBytes) 0
scalar SingleCell_Standalone.iUpf.ipv4.ip packetDropAddressResolutionFailed:count 0
scalar SingleCell_Standalone.iUpf.ipv4.ip packetDropAddressResolutionFailed:sum(packetBytes) 0
scalar SingleCell_Standalone.iUpf.ipv4.ip packetDropHopLimitReached:count 0
scalar SingleCell_Standalone.iUpf.ipv4.ip packetDropHopLimitReached:sum(packetBytes) 0
scalar SingleCell_Standalone.iUpf.ipv4.ip packetDropForwardingDisabled:count 0
scalar SingleCell_Standalone.iUpf.ipv4.ip packetDropForwardingDisabled:sum(packetBytes) 0
scalar SingleCell_Standalone.iUpf.ipv4.ip packetDropNoInterfaceFound:count 0
scalar SingleCell_Standalone.iUpf.ipv4.ip packetDropNoInterfaceFound:sum(packetBytes) 0
scalar SingleCell_Standalone.iUpf.ipv4.ip packetDropNoRouteFound:count 0
scalar SingleCell_Standalone.iUpf.ipv4.ip packetDropNoRouteFound:sum(packetBytes) 0
scalar SingleCell_Standalone.iUpf.ipv4.ip packetDropUndefined:count 0
scalar SingleCell_Standalone.iUpf.ipv4.ip packetDropUndefined:sum(packetBytes) 0
scalar SingleCell_Standalone.iUpf.ipv4.arp arpResolutionFailed:count 0
scalar SingleCell_Standalone.iUpf.ipv4.arp arpResolutionCompleted:count 0
scalar SingleCell_Standalone.iUpf.ipv4.arp arpResolutionInitiated:count 0
scalar SingleCell_Standalone.iUpf.ipv4.arp arpReplySent:count 0
scalar SingleCell_Standalone.iUpf.ipv4.arp arpReplySent:sum(packetBytes) 0
scalar SingleCell_Standalone.iUpf.ipv4.arp arpRequestSent:count 0
scalar SingleCell_Standalone.iUpf.ipv4.arp arpRequestSent:sum(packetBytes) 0
scalar SingleCell_Standalone.iUpf.pppIf.queue queueLength:last 0
scalar SingleCell_Standalone.iUpf.pppIf.queue queueLength:max 0
scalar SingleCell_Standalone.iUpf.pppIf.queue queueLength:timeavg 0
scalar SingleCell_Standalone.iUpf.pppIf.queue queueBitLength:last 0
scalar SingleCell_Standalone.iUpf.pppIf.queue queueBitLength:max 0
scalar SingleCell_Standalone.iUpf.pppIf.queue queueBitLength:timeavg 0
scalar SingleCell_Standalone.iUpf.pppIf.queue outgoingPackets:count 0
scalar SingleCell_Standalone.iUpf.pppIf.queue outgoingPacketLengths:sum 0
scalar SingleCell_Standalone.iUpf.pppIf.queue incomingPackets:count 0
scalar SingleCell_Standalone.iUpf.pppIf.queue incomingPacketLengths:sum 0
scalar SingleCell_Standalone.iUpf.pppIf.queue droppedPacketsQueueOverflow:count 0
scalar SingleCell_Standalone.iUpf.pppIf.queue droppedPacketLengthsQueueOverflow:sum 0
scalar SingleCell_Standalone.iUpf.pppIf.ppp transmissionState:timeavg 0
scalar SingleCell_Standalone.iUpf.pppIf.ppp rxPkOk:count 0
scalar SingleCell_Standalone.iUpf.pppIf.ppp rxPkOk:sum(packetBytes) 0
scalar SingleCell_Standalone.iUpf.pppIf.ppp txPk:count 0
scalar SingleCell_Standalone.iUpf.pppIf.ppp txPk:sum(packetBytes) 0
scalar SingleCell_Standalone.iUpf.pppIf.ppp rcvdPkFromHl:count 0
scalar SingleCell_Standalone.iUpf.pppIf.ppp rcvdPkFromHl:sum(packetBytes) 0
scalar SingleCell_Standalone.iUpf.pppIf.ppp passedUpPk:count 0
scalar SingleCell_Standalone.iUpf.pppIf.ppp passedUpPk:sum(packetBytes) 0
scalar SingleCell_Standalone.iUpf.pppIf.ppp packetDropIncorrectlyReceived:count 0
scalar SingleCell_Standalone.iUpf.pppIf.ppp packetDropIncorrectlyReceived:sum(packetBytes) 0
scalar SingleCell_Standalone.iUpf.pppIf.ppp packetDropInterfaceDown:count 0
scalar SingleCell_Standalone.iUpf.pppIf.ppp packetDropInterfaceDown:sum(packetBytes) 0
scalar SingleCell_Standalone.iUpf.pppIf packetDropInterfaceDown:count 0
scalar SingleCell_Standalone.iUpf.pppIf packetDropInterfaceDown:sum(packetBytes) 0
scalar SingleCell_Standalone.iUpf.pppIf packetDropNoCarrier:count 0
scalar SingleCell_Standalone.iUpf.pppIf packetDropNoCarrier:sum(packetBytes) 0
scalar SingleCell_Standalone.iUpf.udp packetReceived:count 0
scalar SingleCell_Standalone.iUpf.udp packetReceived:sum(packetBytes) 0
scalar SingleCell_Standalone.iUpf.udp packetSent:count 0
scalar SingleCell_Standalone.iUpf.udp packetSent:sum(packetBytes) 0
scalar SingleCell_Standalone.iUpf.udp passedUpPk:count 0
scalar SingleCell_Standalone.iUpf.udp droppedPkWrongPort:count 0
scalar SingleCell_Standalone.iUpf.udp droppedPkBadChecksum:count 0
scalar SingleCell_Standalone.gnb.cellularNic.pdcp sentPacketToLowerLayer:count 0
scalar SingleCell_Standalone.gnb.cellularNic.pdcp sentPacketToLowerLayer:sum(packetBytes) 0
scalar SingleCell_Standalone.gnb.cellularNic.pdcp sentPacketToUpperLayer:count 39615
scalar SingleCell_Standalone.gnb.cellularNic.pdcp sentPacketToUpperLayer:sum(packetBytes) 40510068
scalar SingleCell_Standalone.gnb.cellularNic.pdcp receivedPacketFromLowerLayer:count 39615
scalar SingleCell_Standalone.gnb.cellularNic.pdcp receivedPacketFromLowerLayer:sum(packetBytes) 40549683
scalar SingleCell_Standalone.gnb.cellularNic.pdcp receivedPacketFromUpperLayer:count 0
scalar SingleCell_Standalone.gnb.cellularNic.pdcp receivedPacketFromUpperLayer:sum(packetBytes) 0
scalar SingleCell_Standalone.gnb.cellularNic.rlc.tm rlcPacketLossUl:mean -nan
scalar SingleCell_Standalone.gnb.cellularNic.rlc.tm rlcPacketLossUl:sum 0
scalar SingleCell_Standalone.gnb.cellularNic.rlc.tm rlcPacketLossDl:mean -nan
scalar SingleCell_Standalone.gnb.cellularNic.rlc.tm rlcPacketLossDl:sum 0
scalar SingleCell_Standalone.gnb.cellularNic.rlc.tm sentPacketToLowerLayer:count 0
scalar SingleCell_Standalone.gnb.cellularNic.rlc.tm sentPacketToLowerLayer:sum(packetBytes) 0
scalar SingleCell_Standalone.gnb.cellularNic.rlc.tm sentPacketToUpperLayer:count 0
scalar SingleCell_Standalone.gnb.cellularNic.rlc.tm sentPacketToUpperLayer:sum(packetBytes) 0
scalar SingleCell_Standalone.gnb.cellularNic.rlc.tm receivedPacketFromLowerLayer:count 0
scalar SingleCell_Standalone.gnb.cellularNic.rlc.tm receivedPacketFromLowerLayer:sum(packetBytes) 0
scalar SingleCell_Standalone.gnb.cellularNic.rlc.tm receivedPacketFromUpperLayer:count 0
scalar SingleCell_Standalone.gnb.cellularNic.rlc.tm receivedPacketFromUpperLayer:sum(packetBytes) 0
scalar SingleCell_Standalone.gnb.cellularNic.rlc.um rlcCellThroughputD2D:simu5g_rateavg -nan
scalar SingleCell_Standalone.gnb.cellularNic.rlc.um rlcPduThroughputD2D:simu5g_rateavg -nan
scalar SingleCell_Standalone.gnb.cellularNic.rlc.um rlcPduDelayD2D:mean -nan
scalar SingleCell_Standalone.gnb.cellularNic.rlc.um rlcThroughputD2D:simu5g_rateavg -nan
scalar SingleCell_Standalone.gnb.cellularNic.rlc.um rlcDelayD2D:mean -nan
scalar SingleCell_Standalone.gnb.cellularNic.rlc.um rlcCellThroughputUl:simu5g_rateavg 818694.34651000891
scalar SingleCell_Standalone.gnb.cellularNic.rlc.um rlcCellThroughputDl:simu5g_rateavg -nan
scalar SingleCell_Standalone.gnb.cellularNic.rlc.um rlcPduThroughputUl:simu5g_rateavg -nan
scalar SingleCell_Standalone.gnb.cellularNic.rlc.um rlcPduThroughputDl:simu5g_rateavg -nan
scalar SingleCell_Standalone.gnb.cellularNic.rlc.um rlcPduDelayUl:mean -nan
scalar SingleCell_Standalone.gnb.cellularNic.rlc.um rlcPduDelayDl:mean -nan
scalar SingleCell_Standalone.gnb.cellularNic.rlc.um rlcThroughputUl:simu5g_rateavg -nan
scalar SingleCell_Standalone.gnb.cellularNic.rlc.um rlcThroughputDl:simu5g_rateavg -nan
scalar SingleCell_Standalone.gnb.cellularNic.rlc.um rlcDelayUl:mean -nan
scalar SingleCell_Standalone.gnb.cellularNic.rlc.um rlcDelayDl:mean -nan
scalar SingleCell_Standalone.gnb.cellularNic.rlc.um sentPacketToLowerLayer:count 0
scalar SingleCell_Standalone.gnb.cellularNic.rlc.um sentPacketToLowerLayer:sum(packetBytes) 0
scalar SingleCell_Standalone.gnb.cellularNic.rlc.um sentPacketToUpperLayer:count 39615
scalar SingleCell_Standalone.gnb.cellularNic.rlc.um sentPacketToUpperLayer:sum(packetBytes) 40549683
scalar SingleCell_Standalone.gnb.cellularNic.rlc.um receivedPacketFromLowerLayer:count 68717
scalar SingleCell_Standalone.gnb.cellularNic.rlc.um receivedPacketFromLowerLayer:sum(packetBytes) 41381179
scalar SingleCell_Standalone.gnb.cellularNic.rlc.um receivedPacketFromUpperLayer:count 0
scalar SingleCell_Standalone.gnb.cellularNic.rlc.um receivedPacketFromUpperLayer:sum(packetBytes) 0
scalar SingleCell_Standalone.gnb.cellularNic.rlc.am rlcPacketLossTotal:mean -nan
scalar SingleCell_Standalone.gnb.cellularNic.rlc.am rlcCellThroughputUl:simu5g_rateavg -nan
scalar SingleCell_Standalone.gnb.cellularNic.rlc.am rlcCellThroughputDl:simu5g_rateavg -nan
scalar SingleCell_Standalone.gnb.cellularNic.rlc.am rlcPduThroughputUl:simu5g_rateavg -nan
scalar SingleCell_Standalone.gnb.cellularNic.rlc.am rlcPduThroughputDl:simu5g_rateavg -nan
scalar SingleCell_Standalone.gnb.cellularNic.rlc.am rlcPduDelayUl:mean -nan
scalar SingleCell_Standalone.gnb.cellularNic.rlc.am rlcPduDelayDl:mean -nan
scalar SingleCell_Standalone.gnb.cellularNic.rlc.am rlcThroughputUl:simu5g_rateavg -nan
scalar SingleCell_Standalone.gnb.cellularNic.rlc.am rlcThroughputDl:simu5g_rateavg -nan
scalar SingleCell_Standalone.gnb.cellularNic.rlc.am rlcDelayUl:mean -nan
scalar SingleCell_Standalone.gnb.cellularNic.rlc.am rlcDelayDl:mean -nan
scalar SingleCell_Standalone.gnb.cellularNic.rlc.am rlcPduPacketLossUl:mean -nan
scalar SingleCell_Standalone.gnb.cellularNic.rlc.am rlcPduPacketLossDl:mean -nan
scalar SingleCell_Standalone.gnb.cellularNic.rlc.am rlcPacketLossUl:mean -nan
scalar SingleCell_Standalone.gnb.cellularNic.rlc.am rlcPacketLossDl:mean -nan
scalar SingleCell_Standalone.gnb.cellularNic.rlc.am rlcCellPacketLossUl:mean -nan
scalar SingleCell_Standalone.gnb.cellularNic.rlc.am rlcCellPacketLossDl:mean -nan
scalar SingleCell_Standalone.gnb.cellularNic.mac avgServedBlocksUl:mean 5.9077000000000002
scalar SingleCell_Standalone.gnb.cellularNic.mac avgServedBlocksDl:mean 0
scalar SingleCell_Standalone.gnb.cellularNic.mac macCellPacketLossD2D:mean -nan
scalar SingleCell_Standalone.gnb.cellularNic.mac macCellThroughputD2D:simu5g_rateavg -nan
scalar SingleCell_Standalone.gnb.cellularNic.mac harqTxAttemptsUl:mean -nan
scalar SingleCell_Standalone.gnb.cellularNic.mac harqTxAttemptsDl:mean -nan
scalar SingleCell_Standalone.gnb.cellularNic.mac harqErrorRate_4th_Ul:mean -nan
scalar SingleCell_Standalone.gnb.cellularNic.mac harqErrorRate_4th_Dl:mean -nan
scalar SingleCell_Standalone.gnb.cellularNic.mac harqErrorRate_3rd_Ul:mean -nan
scalar SingleCell_Standalone.gnb.cellularNic.mac harqErrorRate_3rd_Dl:mean -nan
scalar SingleCell_Standalone.gnb.cellularNic.mac harqErrorRate_2nd_Ul:mean -nan
scalar SingleCell_Standalone.gnb.cellularNic.mac harqErrorRate_2nd_Dl:mean -nan
scalar SingleCell_Standalone.gnb.cellularNic.mac harqErrorRate_1st_Ul:mean -nan
scalar SingleCell_Standalone.gnb.cellularNic.mac harqErrorRate_1st_Dl:mean -nan
scalar SingleCell_Standalone.gnb.cellularNic.mac harqErrorRateUl:mean -nan
scalar SingleCell_Standalone.gnb.cellularNic.mac harqErrorRateDl:mean -nan
scalar SingleCell_Standalone.gnb.cellularNic.mac macCellPacketLossUl:mean 0
scalar SingleCell_Standalone.gnb.cellularNic.mac macCellPacketLossDl:mean -nan
scalar SingleCell_Standalone.gnb.cellularNic.mac macPacketLossUl:mean -nan
scalar SingleCell_Standalone.gnb.cellularNic.mac macPacketLossDl:mean -nan
scalar SingleCell_Standalone.gnb.cellularNic.mac macThroughputUl:simu5g_rateavg -nan
scalar SingleCell_Standalone.gnb.cellularNic.mac macThroughputDl:simu5g_rateavg -nan
scalar SingleCell_Standalone.gnb.cellularNic.mac macDelayUl:mean -nan
scalar SingleCell_Standalone.gnb.cellularNic.mac macDelayDl:mean -nan
scalar SingleCell_Standalone.gnb.cellularNic.mac macCellThroughputUl:simu5g_rateavg 833950.98471313727
scalar SingleCell_Standalone.gnb.cellularNic.mac macCellThroughputDl:simu5g_rateavg -nan
scalar SingleCell_Standalone.gnb.cellularNic.mac sentPacketToLowerLayer:count 152865
scalar SingleCell_Standalone.gnb.cellularNic.mac sentPacketToLowerLayer:sum(packetBytes) 152865
scalar SingleCell_Standalone.gnb.cellularNic.mac sentPacketToUpperLayer:count 68717
scalar SingleCell_Standalone.gnb.cellularNic.mac sentPacketToUpperLayer:sum(packetBytes) 41381179
scalar SingleCell_Standalone.gnb.cellularNic.mac receivedPacketFromLowerLayer:count 132840
scalar SingleCell_Standalone.gnb.cellularNic.mac receivedPacketFromLowerLayer:sum(packetBytes) 42048014
scalar SingleCell_Standalone.gnb.cellularNic.mac receivedPacketFromUpperLayer:count 0
scalar SingleCell_Standalone.gnb.cellularNic.mac receivedPacketFromUpperLayer:sum(packetBytes) 0
scalar SingleCell_Standalone.gnb.cellularNic.mac macBufferOverFlowD2D:mean -nan
scalar SingleCell_Standalone.gnb.cellularNic.mac macBufferOverFlowUl:mean -nan
scalar SingleCell_Standalone.gnb.cellularNic.mac macBufferOverFlowDl:mean -nan
scalar SingleCell_Standalone.gnb.cellularNic.channelModel[0] measuredSinrUl:mean -nan
scalar SingleCell_Standalone.gnb.cellularNic.channelModel[0] measuredSinrDl:mean -nan
scalar SingleCell_Standalone.gnb.cellularNic.channelModel[0] rcvdSinrD2D:mean -nan
scalar SingleCell_Standalone.gnb.cellularNic.channelModel[0] rcvdSinrUl:mean -nan
scalar SingleCell_Standalone.gnb.cellularNic.channelModel[0] rcvdSinrDl:mean -nan
scalar SingleCell_Standalone.gnb.cellularNic packetDropInterfaceDown:count 0
scalar SingleCell_Standalone.gnb.cellularNic packetDropInterfaceDown:sum(packetBytes) 0
scalar SingleCell_Standalone.gnb.cellularNic packetDropNoCarrier:count 0
scalar SingleCell_Standalone.gnb.cellularNic packetDropNoCarrier:sum(packetBytes) 0
scalar SingleCell_Standalone.gnb.pppIf.queue queueLength:last 0
scalar SingleCell_Standalone.gnb.pppIf.queue queueLength:max 12
scalar SingleCell_Standalone.gnb.pppIf.queue queueLength:timeavg 0.00047809779200003589
scalar SingleCell_Standalone.gnb.pppIf.queue queueBitLength:last 0
scalar SingleCell_Standalone.gnb.pppIf.queue queueBitLength:max 101760
scalar SingleCell_Standalone.gnb.pppIf.queue queueBitLength:timeavg 3.4542262046721679
scalar SingleCell_Standalone.gnb.pppIf.queue outgoingPackets:count 39615
scalar SingleCell_Standalone.gnb.pppIf.queue outgoingPacketLengths:sum 335489664
scalar SingleCell_Standalone.gnb.pppIf.queue incomingPackets:count 39615
scalar SingleCell_Standalone.gnb.pppIf.queue incomingPacketLengths:sum 335489664
scalar SingleCell_Standalone.gnb.pppIf.queue droppedPacketsQueueOverflow:count 0
scalar SingleCell_Standalone.gnb.pppIf.queue droppedPacketLengthsQueueOverflow:sum 0
scalar SingleCell_Standalone.gnb.pppIf.ppp transmissionState:timeavg 0.00067541620800042241
scalar SingleCell_Standalone.gnb.pppIf.ppp rxPkOk:count 0
scalar SingleCell_Standalone.gnb.pppIf.ppp rxPkOk:sum(packetBytes) 0
scalar SingleCell_Standalone.gnb.pppIf.ppp txPk:count 39615
scalar SingleCell_Standalone.gnb.pppIf.ppp txPk:sum(packetBytes) 42213513
scalar SingleCell_Standalone.gnb.pppIf.ppp rcvdPkFromHl:count 39615
scalar SingleCell_Standalone.gnb.pppIf.ppp rcvdPkFromHl:sum(packetBytes) 41936208
scalar SingleCell_Standalone.gnb.pppIf.ppp passedUpPk:count 0
scalar SingleCell_Standalone.gnb.pppIf.ppp passedUpPk:sum(packetBytes) 0
scalar SingleCell_Standalone.gnb.pppIf.ppp packetDropIncorrectlyReceived:count 0
scalar SingleCell_Standalone.gnb.pppIf.ppp packetDropIncorrectlyReceived:sum(packetBytes) 0
scalar SingleCell_Standalone.gnb.pppIf.ppp packetDropInterfaceDown:count 0
scalar SingleCell_Standalone.gnb.pppIf.ppp packetDropInterfaceDown:sum(packetBytes) 0
scalar SingleCell_Standalone.gnb.pppIf packetDropInterfaceDown:count 0
scalar SingleCell_Standalone.gnb.pppIf packetDropInterfaceDown:sum(packetBytes) 0
scalar SingleCell_Standalone.gnb.pppIf packetDropNoCarrier:count 0
scalar SingleCell_Standalone.gnb.pppIf packetDropNoCarrier:sum(packetBytes) 0
scalar SingleCell_Standalone.gnb.pppMEHostIf.queue queueLength:last 0
scalar SingleCell_Standalone.gnb.pppMEHostIf.queue queueLength:max 0
scalar SingleCell_Standalone.gnb.pppMEHostIf.queue queueLength:timeavg 0
scalar SingleCell_Standalone.gnb.pppMEHostIf.queue queueBitLength:last 0
scalar SingleCell_Standalone.gnb.pppMEHostIf.queue queueBitLength:max 0
scalar SingleCell_Standalone.gnb.pppMEHostIf.queue queueBitLength:timeavg 0
scalar SingleCell_Standalone.gnb.pppMEHostIf.queue outgoingPackets:count 0
scalar SingleCell_Standalone.gnb.pppMEHostIf.queue outgoingPacketLengths:sum 0
scalar SingleCell_Standalone.gnb.pppMEHostIf.queue incomingPackets:count 0
scalar SingleCell_Standalone.gnb.pppMEHostIf.queue incomingPacketLengths:sum 0
scalar SingleCell_Standalone.gnb.pppMEHostIf.queue droppedPacketsQueueOverflow:count 0
scalar SingleCell_Standalone.gnb.pppMEHostIf.queue droppedPacketLengthsQueueOverflow:sum 0
scalar SingleCell_Standalone.gnb.pppMEHostIf.ppp transmissionState:timeavg 0
scalar SingleCell_Standalone.gnb.pppMEHostIf.ppp rxPkOk:count 0
scalar SingleCell_Standalone.gnb.pppMEHostIf.ppp rxPkOk:sum(packetBytes) 0
scalar SingleCell_Standalone.gnb.pppMEHostIf.ppp txPk:count 0
scalar SingleCell_Standalone.gnb.pppMEHostIf.ppp txPk:sum(packetBytes) 0
scalar SingleCell_Standalone.gnb.pppMEHostIf.ppp rcvdPkFromHl:count 0
scalar SingleCell_Standalone.gnb.pppMEHostIf.ppp rcvdPkFromHl:sum(packetBytes) 0
scalar SingleCell_Standalone.gnb.pppMEHostIf.ppp passedUpPk:count 0
scalar SingleCell_Standalone.gnb.pppMEHostIf.ppp passedUpPk:sum(packetBytes) 0
scalar SingleCell_Standalone.gnb.pppMEHostIf.ppp packetDropIncorrectlyReceived:count 0
scalar SingleCell_Standalone.gnb.pppMEHostIf.ppp packetDropIncorrectlyReceived:sum(packetBytes) 0
scalar SingleCell_Standalone.gnb.pppMEHostIf.ppp packetDropInterfaceDown:count 0
scalar SingleCell_Standalone.gnb.pppMEHostIf.ppp packetDropInterfaceDown:sum(packetBytes) 0
scalar SingleCell_Standalone.gnb.pppMEHostIf packetDropInterfaceDown:count 0
scalar SingleCell_Standalone.gnb.pppMEHostIf packetDropInterfaceDown:sum(packetBytes) 0
scalar SingleCell_Standalone.gnb.pppMEHostIf packetDropNoCarrier:count 0
scalar SingleCell_Standalone.gnb.pppMEHostIf packetDropNoCarrier:sum(packetBytes) 0
scalar SingleCell_Standalone.gnb.ipv4.ip packetDropAddressResolutionFailed:count 0
scalar SingleCell_Standalone.gnb.ipv4.ip packetDropAddressResolutionFailed:sum(packetBytes) 0
scalar SingleCell_Standalone.gnb.ipv4.ip packetDropHopLimitReached:count 0
scalar SingleCell_Standalone.gnb.ipv4.ip packetDropHopLimitReached:sum(packetBytes) 0
scalar SingleCell_Standalone.gnb.ipv4.ip packetDropForwardingDisabled:count 0
scalar SingleCell_Standalone.gnb.ipv4.ip packetDropForwardingDisabled:sum(packetBytes) 0
scalar SingleCell_Standalone.gnb.ipv4.ip packetDropNoInterfaceFound:count 0
scalar SingleCell_Standalone.gnb.ipv4.ip packetDropNoInterfaceFound:sum(packetBytes) 0
scalar SingleCell_Standalone.gnb.ipv4.ip packetDropNoRouteFound:count 0
scalar SingleCell_Standalone.gnb.ipv4.ip packetDropNoRouteFound:sum(packetBytes) 0
scalar SingleCell_Standalone.gnb.ipv4.ip packetDropUndefined:count 0
scalar SingleCell_Standalone.gnb.ipv4.ip packetDropUndefined:sum(packetBytes) 0
scalar SingleCell_Standalone.gnb.ipv4.arp arpResolutionFailed:count 0
scalar SingleCell_Standalone.gnb.ipv4.arp arpResolutionCompleted:count 0
scalar SingleCell_Standalone.gnb.ipv4.arp arpResolutionInitiated:count 0
scalar SingleCell_Standalone.gnb.ipv4.arp arpReplySent:count 0
scalar SingleCell_Standalone.gnb.ipv4.arp arpReplySent:sum(packetBytes) 0
scalar SingleCell_Standalone.gnb.ipv4.arp arpRequestSent:count 0
scalar SingleCell_Standalone.gnb.ipv4.arp arpRequestSent:sum(packetBytes) 0
scalar SingleCell_Standalone.gnb.udp packetReceived:count 0
scalar SingleCell_Standalone.gnb.udp packetReceived:sum(packetBytes) 0
scalar SingleCell_Standalone.gnb.udp packetSent:count 39615
scalar SingleCell_Standalone.gnb.udp packetSent:sum(packetBytes) 41143908
scalar SingleCell_Standalone.gnb.udp passedUpPk:count 0
scalar SingleCell_Standalone.gnb.udp droppedPkWrongPort:count 0
scalar SingleCell_Standalone.gnb.udp droppedPkBadChecksum:count 0
scalar SingleCell_Standalone.ue[0].lo[0].lo rcvdPkFromHl:count 0
scalar SingleCell_Standalone.ue[0].lo[0].lo rcvdPkFromHl:sum(packetBytes) 0
scalar SingleCell_Standalone.ue[0].lo[0].lo passedUpPk:count 0
scalar SingleCell_Standalone.ue[0].lo[0].lo passedUpPk:sum(packetBytes) 0
scalar SingleCell_Standalone.ue[0].lo[0] packetDropInterfaceDown:count 0
scalar SingleCell_Standalone.ue[0].lo[0] packetDropInterfaceDown:sum(packetBytes) 0
scalar SingleCell_Standalone.ue[0].lo[0] packetDropNoCarrier:count 0
scalar SingleCell_Standalone.ue[0].lo[0] packetDropNoCarrier:sum(packetBytes) 0
scalar SingleCell_Standalone.ue[0].cellularNic.pdcp sentPacketToLowerLayer:count 5000
scalar SingleCell_Standalone.ue[0].cellularNic.pdcp sentPacketToLowerLayer:sum(packetBytes) 5125000
scalar SingleCell_Standalone.ue[0].cellularNic.pdcp sentPacketToUpperLayer:count 0
scalar SingleCell_Standalone.ue[0].cellularNic.pdcp sentPacketToUpperLayer:sum(packetBytes) 0
scalar SingleCell_Standalone.ue[0].cellularNic.pdcp receivedPacketFromLowerLayer:count 0
scalar SingleCell_Standalone.ue[0].cellularNic.pdcp receivedPacketFromLowerLayer:sum(packetBytes) 0
scalar SingleCell_Standalone.ue[0].cellularNic.pdcp receivedPacketFromUpperLayer:count 5000
scalar SingleCell_Standalone.ue[0].cellularNic.pdcp receivedPacketFromUpperLayer:sum(packetBytes) 5120000
scalar SingleCell_Standalone.ue[0].cellularNic.rlc.tm rlcPacketLossUl:mean -nan
scalar SingleCell_Standalone.ue[0].cellularNic.rlc.tm rlcPacketLossUl:sum 0
scalar SingleCell_Standalone.ue[0].cellularNic.rlc.tm rlcPacketLossDl:mean -nan
scalar SingleCell_Standalone.ue[0].cellularNic.rlc.tm rlcPacketLossDl:sum 0
scalar SingleCell_Standalone.ue[0].cellularNic.rlc.tm sentPacketToLowerLayer:count 0
scalar SingleCell_Standalone.ue[0].cellularNic.rlc.tm sentPacketToLowerLayer:sum(packetBytes) 0
scalar SingleCell_Standalone.ue[0].cellularNic.rlc.tm sentPacketToUpperLayer:count 0
scalar SingleCell_Standalone.ue[0].cellularNic.rlc.tm sentPacketToUpperLayer:sum(packetBytes) 0
scalar SingleCell_Standalone.ue[0].cellularNic.rlc.tm receivedPacketFromLowerLayer:count 0
scalar SingleCell_Standalone.ue[0].cellularNic.rlc.tm receivedPacketFromLowerLayer:sum(packetBytes) 0
scalar SingleCell_Standalone.ue[0].cellularNic.rlc.tm receivedPacketFromUpperLayer:count 0
scalar SingleCell_Standalone.ue[0].cellularNic.rlc.tm receivedPacketFromUpperLayer:sum(packetBytes) 0
scalar SingleCell_Standalone.ue[0].cellularNic.rlc.um rlcCellThroughputD2D:simu5g_rateavg -nan
scalar SingleCell_Standalone.ue[0].cellularNic.rlc.um rlcPduThroughputD2D:simu5g_rateavg -nan
scalar SingleCell_Standalone.ue[0].cellularNic.rlc.um rlcPduDelayD2D:mean -nan
scalar SingleCell_Standalone.ue[0].cellularNic.rlc.um rlcThroughputD2D:simu5g_rateavg -nan
scalar SingleCell_Standalone.ue[0].cellularNic.rlc.um rlcDelayD2D:mean -nan
scalar SingleCell_Standalone.ue[0].cellularNic.rlc.um rlcCellThroughputUl:simu5g_rateavg -nan
scalar SingleCell_Standalone.ue[0].cellularNic.rlc.um rlcCellThroughputDl:simu5g_rateavg -nan
scalar SingleCell_Standalone.ue[0].cellularNic.rlc.um rlcPduThroughputUl:simu5g_rateavg -nan
scalar SingleCell_Standalone.ue[0].cellularNic.rlc.um rlcPduThroughputDl:simu5g_rateavg -nan
scalar SingleCell_Standalone.ue[0].cellularNic.rlc.um rlcPduDelayUl:mean -nan
scalar SingleCell_Standalone.ue[0].cellularNic.rlc.um rlcPduDelayDl:mean -nan
scalar SingleCell_Standalone.ue[0].cellularNic.rlc.um rlcThroughputUl:simu5g_rateavg -nan
scalar SingleCell_Standalone.ue[0].cellularNic.rlc.um rlcThroughputDl:simu5g_rateavg -nan
scalar SingleCell_Standalone.ue[0].cellularNic.rlc.um rlcDelayUl:mean -nan
scalar SingleCell_Standalone.ue[0].cellularNic.rlc.um rlcDelayDl:mean -nan
scalar SingleCell_Standalone.ue[0].cellularNic.rlc.um sentPacketToLowerLayer:count 0
scalar SingleCell_Standalone.ue[0].cellularNic.rlc.um sentPacketToLowerLayer:sum(packetBytes) 0
scalar SingleCell_Standalone.ue[0].cellularNic.rlc.um sentPacketToUpperLayer:count 0
scalar SingleCell_Standalone.ue[0].cellularNic.rlc.um sentPacketToUpperLayer:sum(packetBytes) 0
scalar SingleCell_Standalone.ue[0].cellularNic.rlc.um receivedPacketFromLowerLayer:count 0
scalar SingleCell_Standalone.ue[0].cellularNic.rlc.um receivedPacketFromLowerLayer:sum(packetBytes) 0
scalar SingleCell_Standalone.ue[0].cellularNic.rlc.um receivedPacketFromUpperLayer:count 0
scalar SingleCell_Standalone.ue[0].cellularNic.rlc.um receivedPacketFromUpperLayer:sum(packetBytes) 0
scalar SingleCell_Standalone.ue[0].cellularNic.rlc.am rlcPacketLossTotal:mean -nan
scalar SingleCell_Standalone.ue[0].cellularNic.rlc.am rlcCellThroughputUl:simu5g_rateavg -nan
scalar SingleCell_Standalone.ue[0].cellularNic.rlc.am rlcCellThroughputDl:simu5g_rateavg -nan
scalar SingleCell_Standalone.ue[0].cellularNic.rlc.am rlcPduThroughputUl:simu5g_rateavg -nan
scalar SingleCell_Standalone.ue[0].cellularNic.rlc.am rlcPduThroughputDl:simu5g_rateavg -nan
scalar SingleCell_Standalone.ue[0].cellularNic.rlc.am rlcPduDelayUl:mean -nan
scalar SingleCell_Standalone.ue[0].cellularNic.rlc.am rlcPduDelayDl:mean -nan
scalar SingleCell_Standalone.ue[0].cellularNic.rlc.am rlcThroughputUl:simu5g_rateavg -nan
scalar SingleCell_Standalone.ue[0].cellularNic.rlc.am rlcThroughputDl:simu5g_rateavg -nan
scalar SingleCell_Standalone.ue[0].cellularNic.rlc.am rlcDelayUl:mean -nan
scalar SingleCell_Standalone.ue[0].cellularNic.rlc.am rlcDelayDl:mean -nan
scalar SingleCell_Standalone.ue[0].cellularNic.rlc.am rlcPduPacketLossUl:mean -nan
scalar SingleCell_Standalone.ue[0].cellularNic.rlc.am rlcPduPacketLossDl:mean -nan
scalar SingleCell_Standalone.ue[0].cellularNic.rlc.am rlcPacketLossUl:mean -nan
scalar SingleCell_Standalone.ue[0].cellularNic.rlc.am rlcPacketLossDl:mean -nan
scalar SingleCell_Standalone.ue[0].cellularNic.rlc.am rlcCellPacketLossUl:mean -nan
scalar SingleCell_Standalone.ue[0].cellularNic.rlc.am rlcCellPacketLossDl:mean -nan
scalar SingleCell_Standalone.ue[0].cellularNic.mac harqErrorRate_4th_D2D:mean -nan
scalar SingleCell_Standalone.ue[0].cellularNic.mac harqErrorRate_3rd_D2D:mean -nan
scalar SingleCell_Standalone.ue[0].cellularNic.mac harqErrorRate_2nd_D2D:mean -nan
scalar SingleCell_Standalone.ue[0].cellularNic.mac harqErrorRate_1st_D2D:mean -nan
scalar SingleCell_Standalone.ue[0].cellularNic.mac harqErrorRateD2D:mean -nan
scalar SingleCell_Standalone.ue[0].cellularNic.mac macPacketLossD2D:mean -nan
scalar SingleCell_Standalone.ue[0].cellularNic.mac macDelayD2D:mean -nan
scalar SingleCell_Standalone.ue[0].cellularNic.mac macThroughputD2D:simu5g_rateavg -nan
scalar SingleCell_Standalone.ue[0].cellularNic.mac harqTxAttemptsUl:mean -nan
scalar SingleCell_Standalone.ue[0].cellularNic.mac harqTxAttemptsDl:mean -nan
scalar SingleCell_Standalone.ue[0].cellularNic.mac harqErrorRate_4th_Ul:mean -nan
scalar SingleCell_Standalone.ue[0].cellularNic.mac harqErrorRate_4th_Dl:mean -nan
scalar SingleCell_Standalone.ue[0].cellularNic.mac harqErrorRate_3rd_Ul:mean -nan
scalar SingleCell_Standalone.ue[0].cellularNic.mac harqErrorRate_3rd_Dl:mean -nan
scalar SingleCell_Standalone.ue[0].cellularNic.mac harqErrorRate_2nd_Ul:mean -nan
scalar SingleCell_Standalone.ue[0].cellularNic.mac harqErrorRate_2nd_Dl:mean -nan
scalar SingleCell_Standalone.ue[0].cellularNic.mac harqErrorRate_1st_Ul:mean -nan
scalar SingleCell_Standalone.ue[0].cellularNic.mac harqErrorRate_1st_Dl:mean -nan
scalar SingleCell_Standalone.ue[0].cellularNic.mac harqErrorRateUl:mean -nan
scalar SingleCell_Standalone.ue[0].cellularNic.mac harqErrorRateDl:mean -nan
scalar SingleCell_Standalone.ue[0].cellularNic.mac macCellPacketLossUl:mean -nan
scalar SingleCell_Standalone.ue[0].cellularNic.mac macCellPacketLossDl:mean -nan
scalar SingleCell_Standalone.ue[0].cellularNic.mac macPacketLossUl:mean -nan
scalar SingleCell_Standalone.ue[0].cellularNic.mac macPacketLossDl:mean -nan
scalar SingleCell_Standalone.ue[0].cellularNic.mac macThroughputUl:simu5g_rateavg -nan
scalar SingleCell_Standalone.ue[0].cellularNic.mac macThroughputDl:simu5g_rateavg -nan
scalar SingleCell_Standalone.ue[0].cellularNic.mac macDelayUl:mean -nan
scalar SingleCell_Standalone.ue[0].cellularNic.mac macDelayDl:mean -nan
scalar SingleCell_Standalone.ue[0].cellularNic.mac macCellThroughputUl:simu5g_rateavg -nan
scalar SingleCell_Standalone.ue[0].cellularNic.mac macCellThroughputDl:simu5g_rateavg -nan
scalar SingleCell_Standalone.ue[0].cellularNic.mac rcvdD2DModeSwitchNotification:count 0
scalar SingleCell_Standalone.ue[0].cellularNic.mac sentPacketToLowerLayer:count 0
scalar SingleCell_Standalone.ue[0].cellularNic.mac sentPacketToLowerLayer:sum(packetBytes) 0
scalar SingleCell_Standalone.ue[0].cellularNic.mac sentPacketToUpperLayer:count 0
scalar SingleCell_Standalone.ue[0].cellularNic.mac sentPacketToUpperLayer:sum(packetBytes) 0
scalar SingleCell_Standalone.ue[0].cellularNic.mac receivedPacketFromLowerLayer:count 0
scalar SingleCell_Standalone.ue[0].cellularNic.mac receivedPacketFromLowerLayer:sum(packetBytes) 0
scalar SingleCell_Standalone.ue[0].cellularNic.mac receivedPacketFromUpperLayer:count 0
scalar SingleCell_Standalone.ue[0].cellularNic.mac receivedPacketFromUpperLayer:sum(packetBytes) 0
scalar SingleCell_Standalone.ue[0].cellularNic.mac macBufferOverFlowD2D:mean -nan
scalar SingleCell_Standalone.ue[0].cellularNic.mac macBufferOverFlowUl:mean -nan
scalar SingleCell_Standalone.ue[0].cellularNic.mac macBufferOverFlowDl:mean -nan
scalar SingleCell_Standalone.ue[0].cellularNic.phy distance:mean -nan
scalar SingleCell_Standalone.ue[0].cellularNic.phy averageCqiD2D:mean -nan
scalar SingleCell_Standalone.ue[0].cellularNic.phy averageCqiUl:mean -nan
scalar SingleCell_Standalone.ue[0].cellularNic.phy averageCqiUl:count 0
scalar SingleCell_Standalone.ue[0].cellularNic.phy averageCqiDl:mean -nan
scalar SingleCell_Standalone.ue[0].cellularNic.phy averageCqiDl:count 0
scalar SingleCell_Standalone.ue[0].cellularNic.channelModel[0] measuredSinrUl:mean -nan
scalar SingleCell_Standalone.ue[0].cellularNic.channelModel[0] measuredSinrDl:mean -nan
scalar SingleCell_Standalone.ue[0].cellularNic.channelModel[0] rcvdSinrD2D:mean -nan
scalar SingleCell_Standalone.ue[0].cellularNic.channelModel[0] rcvdSinrUl:mean -nan
scalar SingleCell_Standalone.ue[0].cellularNic.channelModel[0] rcvdSinrDl:mean -nan
scalar SingleCell_Standalone.ue[0].cellularNic.nrRlc.tm rlcPacketLossUl:mean -nan
scalar SingleCell_Standalone.ue[0].cellularNic.nrRlc.tm rlcPacketLossUl:sum 0
scalar SingleCell_Standalone.ue[0].cellularNic.nrRlc.tm rlcPacketLossDl:mean -nan
scalar SingleCell_Standalone.ue[0].cellularNic.nrRlc.tm rlcPacketLossDl:sum 0
scalar SingleCell_Standalone.ue[0].cellularNic.nrRlc.tm sentPacketToLowerLayer:count 0
scalar SingleCell_Standalone.ue[0].cellularNic.nrRlc.tm sentPacketToLowerLayer:sum(packetBytes) 0
scalar SingleCell_Standalone.ue[0].cellularNic.nrRlc.tm sentPacketToUpperLayer:count 0
scalar SingleCell_Standalone.ue[0].cellularNic.nrRlc.tm sentPacketToUpperLayer:sum(packetBytes) 0
scalar SingleCell_Standalone.ue[0].cellularNic.nrRlc.tm receivedPacketFromLowerLayer:count 0
scalar SingleCell_Standalone.ue[0].cellularNic.nrRlc.tm receivedPacketFromLowerLayer:sum(packetBytes) 0
scalar SingleCell_Standalone.ue[0].cellularNic.nrRlc.tm receivedPacketFromUpperLayer:count 0
scalar SingleCell_Standalone.ue[0].cellularNic.nrRlc.tm receivedPacketFromUpperLayer:sum(packetBytes) 0
scalar SingleCell_Standalone.ue[0].cellularNic.nrRlc.um rlcCellThroughputD2D:simu5g_rateavg -nan
scalar SingleCell_Standalone.ue[0].cellularNic.nrRlc.um rlcPduThroughputD2D:simu5g_rateavg -nan
scalar SingleCell_Standalone.ue[0].cellularNic.nrRlc.um rlcPduDelayD2D:mean -nan
scalar SingleCell_Standalone.ue[0].cellularNic.nrRlc.um rlcThroughputD2D:simu5g_rateavg -nan
scalar SingleCell_Standalone.ue[0].cellularNic.nrRlc.um rlcDelayD2D:mean -nan
scalar SingleCell_Standalone.ue[0].cellularNic.nrRlc.um rlcCellThroughputUl:simu5g_rateavg -nan
scalar SingleCell_Standalone.ue[0].cellularNic.nrRlc.um rlcCellThroughputDl:simu5g_rateavg -nan
scalar SingleCell_Standalone.ue[0].cellularNic.nrRlc.um rlcPduThroughputUl:simu5g_rateavg 0
scalar SingleCell_Standalone.ue[0].cellularNic.nrRlc.um rlcPduThroughputDl:simu5g_rateavg -nan
scalar SingleCell_Standalone.ue[0].cellularNic.nrRlc.um rlcPduDelayUl:mean 0.0041364033445654815
scalar SingleCell_Standalone.ue[0].cellularNic.nrRlc.um rlcPduDelayDl:mean -nan
scalar SingleCell_Standalone.ue[0].cellularNic.nrRlc.um rlcThroughputUl:simu5g_rateavg 98366.098714967986
scalar SingleCell_Standalone.ue[0].cellularNic.nrRlc.um rlcThroughputDl:simu5g_rateavg -nan
scalar SingleCell_Standalone.ue[0].cellularNic.nrRlc.um rlcDelayUl:mean 0.49991067928363764
scalar SingleCell_Standalone.ue[0].cellularNic.nrRlc.um rlcDelayDl:mean -nan
scalar SingleCell_Standalone.ue[0].cellularNic.nrRlc.um sentPacketToLowerLayer:count 8074
scalar SingleCell_Standalone.ue[0].cellularNic.nrRlc.um sentPacketToLowerLayer:sum(packetBytes) 4804007
scalar SingleCell_Standalone.ue[0].cellularNic.nrRlc.um sentPacketToUpperLayer:count 0
scalar SingleCell_Standalone.ue[0].cellularNic.nrRlc.um sentPacketToUpperLayer:sum(packetBytes) 0
scalar SingleCell_Standalone.ue[0].cellularNic.nrRlc.um receivedPacketFromLowerLayer:count 0
scalar SingleCell_Standalone.ue[0].cellularNic.nrRlc.um receivedPacketFromLowerLayer:sum(packetBytes) 0
scalar SingleCell_Standalone.ue[0].cellularNic.nrRlc.um receivedPacketFromUpperLayer:count 5000
scalar SingleCell_Standalone.ue[0].cellularNic.nrRlc.um receivedPacketFromUpperLayer:sum(packetBytes) 5125000
scalar SingleCell_Standalone.ue[0].cellularNic.nrRlc.am rlcPacketLossTotal:mean -nan
scalar SingleCell_Standalone.ue[0].cellularNic.nrRlc.am rlcCellThroughputUl:simu5g_rateavg -nan
scalar SingleCell_Standalone.ue[0].cellularNic.nrRlc.am rlcCellThroughputDl:simu5g_rateavg -nan
scalar SingleCell_Standalone.ue[0].cellularNic.nrRlc.am rlcPduThroughputUl:simu5g_rateavg -nan
scalar SingleCell_Standalone.ue[0].cellularNic.nrRlc.am rlcPduThroughputDl:simu5g_rateavg -nan
scalar SingleCell_Standalone.ue[0].cellularNic.nrRlc.am rlcPduDelayUl:mean -nan
scalar SingleCell_Standalone.ue[0].cellularNic.nrRlc.am rlcPduDelayDl:mean -nan
scalar SingleCell_Standalone.ue[0].cellularNic.nrRlc.am rlcThroughputUl:simu5g_rateavg -nan
scalar SingleCell_Standalone.ue[0].cellularNic.nrRlc.am rlcThroughputDl:simu5g_rateavg -nan
scalar SingleCell_Standalone.ue[0].cellularNic.nrRlc.am rlcDelayUl:mean -nan
scalar SingleCell_Standalone.ue[0].cellularNic.nrRlc.am rlcDelayDl:mean -nan
scalar SingleCell_Standalone.ue[0].cellularNic.nrRlc.am rlcPduPacketLossUl:mean -nan
scalar SingleCell_Standalone.ue[0].cellularNic.nrRlc.am rlcPduPacketLossDl:mean -nan
scalar SingleCell_Standalone.ue[0].cellularNic.nrRlc.am rlcPacketLossUl:mean -nan
scalar SingleCell_Standalone.ue[0].cellularNic.nrRlc.am rlcPacketLossDl:mean -nan
scalar SingleCell_Standalone.ue[0].cellularNic.nrRlc.am rlcCellPacketLossUl:mean -nan
scalar SingleCell_Standalone.ue[0].cellularNic.nrRlc.am rlcCellPacketLossDl:mean -nan
scalar SingleCell_Standalone.ue[0].cellularNic.nrMac harqErrorRate_4th_D2D:mean -nan
scalar SingleCell_Standalone.ue[0].cellularNic.nrMac harqErrorRate_3rd_D2D:mean -nan
scalar SingleCell_Standalone.ue[0].cellularNic.nrMac harqErrorRate_2nd_D2D:mean -nan
scalar SingleCell_Standalone.ue[0].cellularNic.nrMac harqErrorRate_1st_D2D:mean -nan
scalar SingleCell_Standalone.ue[0].cellularNic.nrMac harqErrorRateD2D:mean -nan
scalar SingleCell_Standalone.ue[0].cellularNic.nrMac macPacketLossD2D:mean -nan
scalar SingleCell_Standalone.ue[0].cellularNic.nrMac macDelayD2D:mean -nan
scalar SingleCell_Standalone.ue[0].cellularNic.nrMac macThroughputD2D:simu5g_rateavg -nan
scalar SingleCell_Standalone.ue[0].cellularNic.nrMac harqTxAttemptsUl:mean 1.006863846249844
scalar SingleCell_Standalone.ue[0].cellularNic.nrMac harqTxAttemptsDl:mean -nan
scalar SingleCell_Standalone.ue[0].cellularNic.nrMac harqErrorRate_4th_Ul:mean -nan
scalar SingleCell_Standalone.ue[0].cellularNic.nrMac harqErrorRate_4th_Dl:mean -nan
scalar SingleCell_Standalone.ue[0].cellularNic.nrMac harqErrorRate_3rd_Ul:mean 0
scalar SingleCell_Standalone.ue[0].cellularNic.nrMac harqErrorRate_3rd_Dl:mean -nan
scalar SingleCell_Standalone.ue[0].cellularNic.nrMac harqErrorRate_2nd_Ul:mean 0.018518518518518517
scalar SingleCell_Standalone.ue[0].cellularNic.nrMac harqErrorRate_2nd_Dl:mean -nan
scalar SingleCell_Standalone.ue[0].cellularNic.nrMac harqErrorRate_1st_Ul:mean 0.0067390490453013855
scalar SingleCell_Standalone.ue[0].cellularNic.nrMac harqErrorRate_1st_Dl:mean -nan
scalar SingleCell_Standalone.ue[0].cellularNic.nrMac harqErrorRateUl:mean 0.0068170550322260784
scalar SingleCell_Standalone.ue[0].cellularNic.nrMac harqErrorRateDl:mean -nan
scalar SingleCell_Standalone.ue[0].cellularNic.nrMac macCellPacketLossUl:mean -nan
scalar SingleCell_Standalone.ue[0].cellularNic.nrMac macCellPacketLossDl:mean -nan
scalar SingleCell_Standalone.ue[0].cellularNic.nrMac macPacketLossUl:mean 0
scalar SingleCell_Standalone.ue[0].cellularNic.nrMac macPacketLossDl:mean -nan
scalar SingleCell_Standalone.ue[0].cellularNic.nrMac macThroughputUl:simu5g_rateavg 99823.198067126243
scalar SingleCell_Standalone.ue[0].cellularNic.nrMac macThroughputDl:simu5g_rateavg -nan
scalar SingleCell_Standalone.ue[0].cellularNic.nrMac macDelayUl:mean 0.0041364033445654815
scalar SingleCell_Standalone.ue[0].cellularNic.nrMac macDelayDl:mean -nan
scalar SingleCell_Standalone.ue[0].cellularNic.nrMac macCellThroughputUl:simu5g_rateavg -nan
scalar SingleCell_Standalone.ue[0].cellularNic.nrMac macCellThroughputDl:simu5g_rateavg -nan
scalar SingleCell_Standalone.ue[0].cellularNic.nrMac rcvdD2DModeSwitchNotification:count 0
scalar SingleCell_Standalone.ue[0].cellularNic.nrMac sentPacketToLowerLayer:count 9680
scalar SingleCell_Standalone.ue[0].cellularNic.nrMac sentPacketToLowerLayer:sum(packetBytes) 4823488
scalar SingleCell_Standalone.ue[0].cellularNic.nrMac sentPacketToUpperLayer:count 8074
scalar SingleCell_Standalone.ue[0].cellularNic.nrMac sentPacketToUpperLayer:sum(packetBytes) 8074
scalar SingleCell_Standalone.ue[0].cellularNic.nrMac receivedPacketFromLowerLayer:count 17813
scalar SingleCell_Standalone.ue[0].cellularNic.nrMac receivedPacketFromLowerLayer:sum(packetBytes) 17813
scalar SingleCell_Standalone.ue[0].cellularNic.nrMac receivedPacketFromUpperLayer:count 13074
scalar SingleCell_Standalone.ue[0].cellularNic.nrMac receivedPacketFromUpperLayer:sum(packetBytes) 9929007
scalar SingleCell_Standalone.ue[0].cellularNic.nrMac macBufferOverFlowD2D:mean -nan
scalar SingleCell_Standalone.ue[0].cellularNic.nrMac macBufferOverFlowUl:mean -nan
scalar SingleCell_Standalone.ue[0].cellularNic.nrMac macBufferOverFlowDl:mean -nan
scalar SingleCell_Standalone.ue[0].cellularNic.nrPhy distance:mean 90.881527077585631
scalar SingleCell_Standalone.ue[0].cellularNic.nrPhy averageCqiD2D:mean -nan
scalar SingleCell_Standalone.ue[0].cellularNic.nrPhy averageCqiUl:mean 14.759791769955379
scalar SingleCell_Standalone.ue[0].cellularNic.nrPhy averageCqiUl:count 8068
scalar SingleCell_Standalone.ue[0].cellularNic.nrPhy averageCqiDl:mean -nan
scalar SingleCell_Standalone.ue[0].cellularNic.nrPhy averageCqiDl:count 0
scalar SingleCell_Standalone.ue[0].cellularNic.nrChannelModel[0] measuredSinrUl:mean 45.871645634479627
scalar SingleCell_Standalone.ue[0].cellularNic.nrChannelModel[0] measuredSinrDl:mean 58.263173971964676
scalar SingleCell_Standalone.ue[0].cellularNic.nrChannelModel[0] rcvdSinrD2D:mean -nan
scalar SingleCell_Standalone.ue[0].cellularNic.nrChannelModel[0] rcvdSinrUl:mean 48.069268120123496
scalar SingleCell_Standalone.ue[0].cellularNic.nrChannelModel[0] rcvdSinrDl:mean -nan
scalar SingleCell_Standalone.ue[0].cellularNic packetDropInterfaceDown:count 0
scalar SingleCell_Standalone.ue[0].cellularNic packetDropInterfaceDown:sum(packetBytes) 0
scalar SingleCell_Standalone.ue[0].cellularNic packetDropNoCarrier:count 0
scalar SingleCell_Standalone.ue[0].cellularNic packetDropNoCarrier:sum(packetBytes) 0
scalar SingleCell_Standalone.ue[0].encap pauseSent:count 0
scalar SingleCell_Standalone.ue[0].encap pauseSent:sum 0
scalar SingleCell_Standalone.ue[0].encap decapPk:count 0
scalar SingleCell_Standalone.ue[0].encap decapPk:sum(packetBytes) 0
scalar SingleCell_Standalone.ue[0].encap encapPk:count 0
scalar SingleCell_Standalone.ue[0].encap encapPk:sum(packetBytes) 0
scalar SingleCell_Standalone.ue[0].ipv4.ip packetDropAddressResolutionFailed:count 0
scalar SingleCell_Standalone.ue[0].ipv4.ip packetDropAddressResolutionFailed:sum(packetBytes) 0
scalar SingleCell_Standalone.ue[0].ipv4.ip packetDropHopLimitReached:count 0
scalar SingleCell_Standalone.ue[0].ipv4.ip packetDropHopLimitReached:sum(packetBytes) 0
scalar SingleCell_Standalone.ue[0].ipv4.ip packetDropForwardingDisabled:count 0
scalar SingleCell_Standalone.ue[0].ipv4.ip packetDropForwardingDisabled:sum(packetBytes) 0
scalar SingleCell_Standalone.ue[0].ipv4.ip packetDropNoInterfaceFound:count 0
scalar SingleCell_Standalone.ue[0].ipv4.ip packetDropNoInterfaceFound:sum(packetBytes) 0
scalar SingleCell_Standalone.ue[0].ipv4.ip packetDropNoRouteFound:count 0
scalar SingleCell_Standalone.ue[0].ipv4.ip packetDropNoRouteFound:sum(packetBytes) 0
scalar SingleCell_Standalone.ue[0].ipv4.ip packetDropUndefined:count 0
scalar SingleCell_Standalone.ue[0].ipv4.ip packetDropUndefined:sum(packetBytes) 0
scalar SingleCell_Standalone.ue[0].ipv4.arp arpResolutionFailed:count 0
scalar SingleCell_Standalone.ue[0].ipv4.arp arpResolutionCompleted:count 0
scalar SingleCell_Standalone.ue[0].ipv4.arp arpResolutionInitiated:count 0
scalar SingleCell_Standalone.ue[0].ipv4.arp arpReplySent:count 0
scalar SingleCell_Standalone.ue[0].ipv4.arp arpReplySent:sum(packetBytes) 0
scalar SingleCell_Standalone.ue[0].ipv4.arp arpRequestSent:count 0
scalar SingleCell_Standalone.ue[0].ipv4.arp arpRequestSent:sum(packetBytes) 0
scalar SingleCell_Standalone.ue[0].udp packetReceived:count 0
scalar SingleCell_Standalone.ue[0].udp packetReceived:sum(packetBytes) 0
scalar SingleCell_Standalone.ue[0].udp packetSent:count 2500
scalar SingleCell_Standalone.ue[0].udp packetSent:sum(packetBytes) 5020000
scalar SingleCell_Standalone.ue[0].udp passedUpPk:count 0
scalar SingleCell_Standalone.ue[0].udp droppedPkWrongPort:count 0
scalar SingleCell_Standalone.ue[0].udp droppedPkBadChecksum:count 0
scalar SingleCell_Standalone.ue[0].app[0] cbrGeneratedBytes:mean 2000
scalar SingleCell_Standalone.ue[0].app[0] cbrGeneratedBytes:last(sumPerDuration) 100019.07739909137
scalar SingleCell_Standalone.ue[0].app[0] cbrGeneratedThroughput:simu5g_rateavg 100000
scalar SingleCell_Standalone.ue[1].lo[0].lo rcvdPkFromHl:count 0
scalar SingleCell_Standalone.ue[1].lo[0].lo rcvdPkFromHl:sum(packetBytes) 0
scalar SingleCell_Standalone.ue[1].lo[0].lo passedUpPk:count 0
scalar SingleCell_Standalone.ue[1].lo[0].lo passedUpPk:sum(packetBytes) 0
scalar SingleCell_Standalone.ue[1].lo[0] packetDropInterfaceDown:count 0
scalar SingleCell_Standalone.ue[1].lo[0] packetDropInterfaceDown:sum(packetBytes) 0
scalar SingleCell_Standalone.ue[1].lo[0] packetDropNoCarrier:count 0
scalar SingleCell_Standalone.ue[1].lo[0] packetDropNoCarrier:sum(packetBytes) 0
scalar SingleCell_Standalone.ue[1].cellularNic.pdcp sentPacketToLowerLayer:count 5000
scalar SingleCell_Standalone.ue[1].cellularNic.pdcp sentPacketToLowerLayer:sum(packetBytes) 5125000
scalar SingleCell_Standalone.ue[1].cellularNic.pdcp sentPacketToUpperLayer:count 0
scalar SingleCell_Standalone.ue[1].cellularNic.pdcp sentPacketToUpperLayer:sum(packetBytes) 0
scalar SingleCell_Standalone.ue[1].cellularNic.pdcp receivedPacketFromLowerLayer:count 0
scalar SingleCell_Standalone.ue[1].cellularNic.pdcp receivedPacketFromLowerLayer:sum(packetBytes) 0
scalar SingleCell_Standalone.ue[1].cellularNic.pdcp receivedPacketFromUpperLayer:count 5000
scalar SingleCell_Standalone.ue[1].cellularNic.pdcp receivedPacketFromUpperLayer:sum(packetBytes) 5120000
scalar SingleCell_Standalone.ue[1].cellularNic.rlc.tm rlcPacketLossUl:mean -nan
scalar SingleCell_Standalone.ue[1].cellularNic.rlc.tm rlcPacketLossUl:sum 0
scalar SingleCell_Standalone.ue[1].cellularNic.rlc.tm rlcPacketLossDl:mean -nan
scalar SingleCell_Standalone.ue[1].cellularNic.rlc.tm rlcPacketLossDl:sum 0
scalar SingleCell_Standalone.ue[1].cellularNic.rlc.tm sentPacketToLowerLayer:count 0
scalar SingleCell_Standalone.ue[1].cellularNic.rlc.tm sentPacketToLowerLayer:sum(packetBytes) 0
scalar SingleCell_Standalone.ue[1].cellularNic.rlc.tm sentPacketToUpperLayer:count 0
scalar SingleCell_Standalone.ue[1].cellularNic.rlc.tm sentPacketToUpperLayer:sum(packetBytes) 0
scalar SingleCell_Standalone.ue[1].cellularNic.rlc.tm receivedPacketFromLowerLayer:count 0
scalar SingleCell_Standalone.ue[1].cellularNic.rlc.tm receivedPacketFromLowerLayer:sum(packetBytes) 0
scalar SingleCell_Standalone.ue[1].cellularNic.rlc.tm receivedPacketFromUpperLayer:count 0
scalar SingleCell_Standalone.ue[1].cellularNic.rlc.tm receivedPacketFromUpperLayer:sum(packetBytes) 0
scalar SingleCell_Standalone.ue[1].cellularNic.rlc.um rlcCellThroughputD2D:simu5g_rateavg -nan
scalar SingleCell_Standalone.ue[1].cellularNic.rlc.um rlcPduThroughputD2D:simu5g_rateavg -nan
scalar SingleCell_Standalone.ue[1].cellularNic.rlc.um rlcPduDelayD2D:mean -nan
scalar SingleCell_Standalone.ue[1].cellularNic.rlc.um rlcThroughputD2D:simu5g_rateavg -nan
scalar SingleCell_Standalone.ue[1].cellularNic.rlc.um rlcDelayD2D:mean -nan
scalar SingleCell_Standalone.ue[1].cellularNic.rlc.um rlcCellThroughputUl:simu5g_rateavg -nan
scalar SingleCell_Standalone.ue[1].cellularNic.rlc.um rlcCellThroughputDl:simu5g_rateavg -nan
scalar SingleCell_Standalone.ue[1].cellularNic.rlc.um rlcPduThroughputUl:simu5g_rateavg -nan
scalar SingleCell_Standalone.ue[1].cellularNic.rlc.um rlcPduThroughputDl:simu5g_rateavg -nan
scalar SingleCell_Standalone.ue[1].cellularNic.rlc.um rlcPduDelayUl:mean -nan
scalar SingleCell_Standalone.ue[1].cellularNic.rlc.um rlcPduDelayDl:mean -nan
scalar SingleCell_Standalone.ue[1].cellularNic.rlc.um rlcThroughputUl:simu5g_rateavg -nan
scalar SingleCell_Standalone.ue[1].cellularNic.rlc.um rlcThroughputDl:simu5g_rateavg -nan
scalar SingleCell_Standalone.ue[1].cellularNic.rlc.um rlcDelayUl:mean -nan
scalar SingleCell_Standalone.ue[1].cellularNic.rlc.um rlcDelayDl:mean -nan
scalar SingleCell_Standalone.ue[1].cellularNic.rlc.um sentPacketToLowerLayer:count 0
scalar SingleCell_Standalone.ue[1].cellularNic.rlc.um sentPacketToLowerLayer:sum(packetBytes) 0
scalar SingleCell_Standalone.ue[1].cellularNic.rlc.um sentPacketToUpperLayer:count 0
scalar SingleCell_Standalone.ue[1].cellularNic.rlc.um sentPacketToUpperLayer:sum(packetBytes) 0
scalar SingleCell_Standalone.ue[1].cellularNic.rlc.um receivedPacketFromLowerLayer:count 0
scalar SingleCell_Standalone.ue[1].cellularNic.rlc.um receivedPacketFromLowerLayer:sum(packetBytes) 0
scalar SingleCell_Standalone.ue[1].cellularNic.rlc.um receivedPacketFromUpperLayer:count 0
scalar SingleCell_Standalone.ue[1].cellularNic.rlc.um receivedPacketFromUpperLayer:sum(packetBytes) 0
scalar SingleCell_Standalone.ue[1].cellularNic.rlc.am rlcPacketLossTotal:mean -nan
scalar SingleCell_Standalone.ue[1].cellularNic.rlc.am rlcCellThroughputUl:simu5g_rateavg -nan
scalar SingleCell_Standalone.ue[1].cellularNic.rlc.am rlcCellThroughputDl:simu5g_rateavg -nan
scalar SingleCell_Standalone.ue[1].cellularNic.rlc.am rlcPduThroughputUl:simu5g_rateavg -nan
scalar SingleCell_Standalone.ue[1].cellularNic.rlc.am rlcPduThroughputDl:simu5g_rateavg -nan
scalar SingleCell_Standalone.ue[1].cellularNic.rlc.am rlcPduDelayUl:mean -nan
scalar SingleCell_Standalone.ue[1].cellularNic.rlc.am rlcPduDelayDl:mean -nan
scalar SingleCell_Standalone.ue[1].cellularNic.rlc.am rlcThroughputUl:simu5g_rateavg -nan
scalar SingleCell_Standalone.ue[1].cellularNic.rlc.am rlcThroughputDl:simu5g_rateavg -nan
scalar SingleCell_Standalone.ue[1].cellularNic.rlc.am rlcDelayUl:mean -nan
scalar SingleCell_Standalone.ue[1].cellularNic.rlc.am rlcDelayDl:mean -nan
scalar SingleCell_Standalone.ue[1].cellularNic.rlc.am rlcPduPacketLossUl:mean -nan
scalar SingleCell_Standalone.ue[1].cellularNic.rlc.am rlcPduPacketLossDl:mean -nan
scalar SingleCell_Standalone.ue[1].cellularNic.rlc.am rlcPacketLossUl:mean -nan
scalar SingleCell_Standalone.ue[1].cellularNic.rlc.am rlcPacketLossDl:mean -nan
scalar SingleCell_Standalone.ue[1].cellularNic.rlc.am rlcCellPacketLossUl:mean -nan
scalar SingleCell_Standalone.ue[1].cellularNic.rlc.am rlcCellPacketLossDl:mean -nan
scalar SingleCell_Standalone.ue[1].cellularNic.mac harqErrorRate_4th_D2D:mean -nan
scalar SingleCell_Standalone.ue[1].cellularNic.mac harqErrorRate_3rd_D2D:mean -nan
scalar SingleCell_Standalone.ue[1].cellularNic.mac harqErrorRate_2nd_D2D:mean -nan
scalar SingleCell_Standalone.ue[1].cellularNic.mac harqErrorRate_1st_D2D:mean -nan
scalar SingleCell_Standalone.ue[1].cellularNic.mac harqErrorRateD2D:mean -nan
scalar SingleCell_Standalone.ue[1].cellularNic.mac macPacketLossD2D:mean -nan
scalar SingleCell_Standalone.ue[1].cellularNic.mac macDelayD2D:mean -nan
scalar SingleCell_Standalone.ue[1].cellularNic.mac macThroughputD2D:simu5g_rateavg -nan
scalar SingleCell_Standalone.ue[1].cellularNic.mac harqTxAttemptsUl:mean -nan
scalar SingleCell_Standalone.ue[1].cellularNic.mac harqTxAttemptsDl:mean -nan
scalar SingleCell_Standalone.ue[1].cellularNic.mac harqErrorRate_4th_Ul:mean -nan
scalar SingleCell_Standalone.ue[1].cellularNic.mac harqErrorRate_4th_Dl:mean -nan
scalar SingleCell_Standalone.ue[1].cellularNic.mac harqErrorRate_3rd_Ul:mean -nan
scalar SingleCell_Standalone.ue[1].cellularNic.mac harqErrorRate_3rd_Dl:mean -nan
scalar SingleCell_Standalone.ue[1].cellularNic.mac harqErrorRate_2nd_Ul:mean -nan
scalar SingleCell_Standalone.ue[1].cellularNic.mac harqErrorRate_2nd_Dl:mean -nan
scalar SingleCell_Standalone.ue[1].cellularNic.mac harqErrorRate_1st_Ul:mean -nan
[...]
scalar SingleCell_Standalone.ue[9].cellularNic.nrChannelModel[0] rcvdSinrDl:vector:min inf
scalar SingleCell_Standalone.ue[9].cellularNic.nrChannelModel[0] rcvdSinrDl:vector:max -inf
scalar SingleCell_Standalone.ue[9].cellularNic.nrChannelModel[0] rcvdSinrDl:vector:starttime nan
scalar SingleCell_Standalone.ue[9].cellularNic.nrChannelModel[0] rcvdSinrDl:vector:endtime nan
scalar SingleCell_Standalone.ue[9].cellularNic.nrChannelModel[0] rcvdSinrUl:vector:count 8804
scalar SingleCell_Standalone.ue[9].cellularNic.nrChannelModel[0] rcvdSinrUl:vector:sum 446974.58231225592
scalar SingleCell_Standalone.ue[9].cellularNic.nrChannelModel[0] rcvdSinrUl:vector:sumweights 8804
scalar SingleCell_Standalone.ue[9].cellularNic.nrChannelModel[0] rcvdSinrUl:vector:mean 50.769489131333025
scalar SingleCell_Standalone.ue[9].cellularNic.nrChannelModel[0] rcvdSinrUl:vector:stddev 10.627728044709229
scalar SingleCell_Standalone.ue[9].cellularNic.nrChannelModel[0] rcvdSinrUl:vector:min 21.932721613660831
scalar SingleCell_Standalone.ue[9].cellularNic.nrChannelModel[0] rcvdSinrUl:vector:max 80.554474362788824
scalar SingleCell_Standalone.ue[9].cellularNic.nrChannelModel[0] rcvdSinrUl:vector:starttime 0.0060000000000000001
scalar SingleCell_Standalone.ue[9].cellularNic.nrChannelModel[0] rcvdSinrUl:vector:endtime 50
scalar SingleCell_Standalone.ue[9].cellularNic.nrChannelModel[0] rcvdSinrD2D:vector:count 0
scalar SingleCell_Standalone.ue[9].cellularNic.nrChannelModel[0] rcvdSinrD2D:vector:sum 0
scalar SingleCell_Standalone.ue[9].cellularNic.nrChannelModel[0] rcvdSinrD2D:vector:sumweights 0
scalar SingleCell_Standalone.ue[9].cellularNic.nrChannelModel[0] rcvdSinrD2D:vector:mean -nan
scalar SingleCell_Standalone.ue[9].cellularNic.nrChannelModel[0] rcvdSinrD2D:vector:stddev nan
scalar SingleCell_Standalone.ue[9].cellularNic.nrChannelModel[0] rcvdSinrD2D:vector:min inf
scalar SingleCell_Standalone.ue[9].cellularNic.nrChannelModel[0] rcvdSinrD2D:vector:max -inf
scalar SingleCell_Standalone.ue[9].cellularNic.nrChannelModel[0] rcvdSinrD2D:vector:starttime nan
scalar SingleCell_Standalone.ue[9].cellularNic.nrChannelModel[0] rcvdSinrD2D:vector:endtime nan
scalar SingleCell_Standalone.ue[9].cellularNic.nrChannelModel[0] measuredSinrDl:vector:count 5000
scalar SingleCell_Standalone.ue[9].cellularNic.nrChannelModel[0] measuredSinrDl:vector:sum 331117.95291515789
scalar SingleCell_Standalone.ue[9].cellularNic.nrChannelModel[0] measuredSinrDl:vector:sumweights 5000
scalar SingleCell_Standalone.ue[9].cellularNic.nrChannelModel[0] measuredSinrDl:vector:mean 66.22359058303158
scalar SingleCell_Standalone.ue[9].cellularNic.nrChannelModel[0] measuredSinrDl:vector:stddev 11.349669636457643
scalar SingleCell_Standalone.ue[9].cellularNic.nrChannelModel[0] measuredSinrDl:vector:min 41.714808339741062
scalar SingleCell_Standalone.ue[9].cellularNic.nrChannelModel[0] measuredSinrDl:vector:max 103.51532472788524
scalar SingleCell_Standalone.ue[9].cellularNic.nrChannelModel[0] measuredSinrDl:vector:starttime 0.002
scalar SingleCell_Standalone.ue[9].cellularNic.nrChannelModel[0] measuredSinrDl:vector:endtime 49.992000000000004
scalar SingleCell_Standalone.ue[9].cellularNic.nrChannelModel[0] measuredSinrUl:vector:count 5000
scalar SingleCell_Standalone.ue[9].cellularNic.nrChannelModel[0] measuredSinrUl:vector:sum 256921.79334614848
scalar SingleCell_Standalone.ue[9].cellularNic.nrChannelModel[0] measuredSinrUl:vector:sumweights 5000
scalar SingleCell_Standalone.ue[9].cellularNic.nrChannelModel[0] measuredSinrUl:vector:mean 51.384358669229698
scalar SingleCell_Standalone.ue[9].cellularNic.nrChannelModel[0] measuredSinrUl:vector:stddev 10.524834895126364
scalar SingleCell_Standalone.ue[9].cellularNic.nrChannelModel[0] measuredSinrUl:vector:min 26.282650400305641
scalar SingleCell_Standalone.ue[9].cellularNic.nrChannelModel[0] measuredSinrUl:vector:max 74.472209721634457
scalar SingleCell_Standalone.ue[9].cellularNic.nrChannelModel[0] measuredSinrUl:vector:starttime 0.002
scalar SingleCell_Standalone.ue[9].cellularNic.nrChannelModel[0] measuredSinrUl:vector:endtime 49.992000000000004
scalar SingleCell_Standalone.ue[9].cellularNic packetDropInterfaceDown:vector(packetBytes):count 0
scalar SingleCell_Standalone.ue[9].cellularNic packetDropInterfaceDown:vector(packetBytes):sum 0
scalar SingleCell_Standalone.ue[9].cellularNic packetDropInterfaceDown:vector(packetBytes):sumweights 0
scalar SingleCell_Standalone.ue[9].cellularNic packetDropInterfaceDown:vector(packetBytes):mean -nan
scalar SingleCell_Standalone.ue[9].cellularNic packetDropInterfaceDown:vector(packetBytes):stddev nan
scalar SingleCell_Standalone.ue[9].cellularNic packetDropInterfaceDown:vector(packetBytes):min inf
scalar SingleCell_Standalone.ue[9].cellularNic packetDropInterfaceDown:vector(packetBytes):max -inf
scalar SingleCell_Standalone.ue[9].cellularNic packetDropInterfaceDown:vector(packetBytes):starttime nan
scalar SingleCell_Standalone.ue[9].cellularNic packetDropInterfaceDown:vector(packetBytes):endtime nan
scalar SingleCell_Standalone.ue[9].cellularNic packetDropNoCarrier:vector(packetBytes):count 0
scalar SingleCell_Standalone.ue[9].cellularNic packetDropNoCarrier:vector(packetBytes):sum 0
scalar SingleCell_Standalone.ue[9].cellularNic packetDropNoCarrier:vector(packetBytes):sumweights 0
scalar SingleCell_Standalone.ue[9].cellularNic packetDropNoCarrier:vector(packetBytes):mean -nan
scalar SingleCell_Standalone.ue[9].cellularNic packetDropNoCarrier:vector(packetBytes):stddev nan
scalar SingleCell_Standalone.ue[9].cellularNic packetDropNoCarrier:vector(packetBytes):min inf
scalar SingleCell_Standalone.ue[9].cellularNic packetDropNoCarrier:vector(packetBytes):max -inf
scalar SingleCell_Standalone.ue[9].cellularNic packetDropNoCarrier:vector(packetBytes):starttime nan
scalar SingleCell_Standalone.ue[9].cellularNic packetDropNoCarrier:vector(packetBytes):endtime nan
scalar SingleCell_Standalone.ue[9].encap encapPk:vector(packetBytes):count 0
scalar SingleCell_Standalone.ue[9].encap encapPk:vector(packetBytes):sum 0
scalar SingleCell_Standalone.ue[9].encap encapPk:vector(packetBytes):sumweights 0
scalar SingleCell_Standalone.ue[9].encap encapPk:vector(packetBytes):mean -nan
scalar SingleCell_Standalone.ue[9].encap encapPk:vector(packetBytes):stddev nan
scalar SingleCell_Standalone.ue[9].encap encapPk:vector(packetBytes):min inf
scalar SingleCell_Standalone.ue[9].encap encapPk:vector(packetBytes):max -inf
scalar SingleCell_Standalone.ue[9].encap encapPk:vector(packetBytes):starttime nan
scalar SingleCell_Standalone.ue[9].encap encapPk:vector(packetBytes):endtime nan
scalar SingleCell_Standalone.ue[9].encap decapPk:vector(packetBytes):count 0
scalar SingleCell_Standalone.ue[9].encap decapPk:vector(packetBytes):sum 0
scalar SingleCell_Standalone.ue[9].encap decapPk:vector(packetBytes):sumweights 0
scalar SingleCell_Standalone.ue[9].encap decapPk:vector(packetBytes):mean -nan
scalar SingleCell_Standalone.ue[9].encap decapPk:vector(packetBytes):stddev nan
scalar SingleCell_Standalone.ue[9].encap decapPk:vector(packetBytes):min inf
scalar SingleCell_Standalone.ue[9].encap decapPk:vector(packetBytes):max -inf
scalar SingleCell_Standalone.ue[9].encap decapPk:vector(packetBytes):starttime nan
scalar SingleCell_Standalone.ue[9].encap decapPk:vector(packetBytes):endtime nan
scalar SingleCell_Standalone.ue[9].encap pauseSent:vector:count 0
scalar SingleCell_Standalone.ue[9].encap pauseSent:vector:sum 0
scalar SingleCell_Standalone.ue[9].encap pauseSent:vector:sumweights 0
scalar SingleCell_Standalone.ue[9].encap pauseSent:vector:mean -nan
scalar SingleCell_Standalone.ue[9].encap pauseSent:vector:stddev nan
scalar SingleCell_Standalone.ue[9].encap pauseSent:vector:min inf
scalar SingleCell_Standalone.ue[9].encap pauseSent:vector:max -inf
scalar SingleCell_Standalone.ue[9].encap pauseSent:vector:starttime nan
scalar SingleCell_Standalone.ue[9].encap pauseSent:vector:endtime nan
scalar SingleCell_Standalone.ue[9].ipv4.ip packetDropAddressResolutionFailed:vector(packetBytes):count 0
scalar SingleCell_Standalone.ue[9].ipv4.ip packetDropAddressResolutionFailed:vector(packetBytes):sum 0
scalar SingleCell_Standalone.ue[9].ipv4.ip packetDropAddressResolutionFailed:vector(packetBytes):sumweights 0
scalar SingleCell_Standalone.ue[9].ipv4.ip packetDropAddressResolutionFailed:vector(packetBytes):mean -nan
scalar SingleCell_Standalone.ue[9].ipv4.ip packetDropAddressResolutionFailed:vector(packetBytes):stddev nan
scalar SingleCell_Standalone.ue[9].ipv4.ip packetDropAddressResolutionFailed:vector(packetBytes):min inf
scalar SingleCell_Standalone.ue[9].ipv4.ip packetDropAddressResolutionFailed:vector(packetBytes):max -inf
scalar SingleCell_Standalone.ue[9].ipv4.ip packetDropAddressResolutionFailed:vector(packetBytes):starttime nan
scalar SingleCell_Standalone.ue[9].ipv4.ip packetDropAddressResolutionFailed:vector(packetBytes):endtime nan
scalar SingleCell_Standalone.ue[9].ipv4.ip packetDropHopLimitReached:vector(packetBytes):count 0
scalar SingleCell_Standalone.ue[9].ipv4.ip packetDropHopLimitReached:vector(packetBytes):sum 0
scalar SingleCell_Standalone.ue[9].ipv4.ip packetDropHopLimitReached:vector(packetBytes):sumweights 0
scalar SingleCell_Standalone.ue[9].ipv4.ip packetDropHopLimitReached:vector(packetBytes):mean -nan
scalar SingleCell_Standalone.ue[9].ipv4.ip packetDropHopLimitReached:vector(packetBytes):stddev nan
scalar SingleCell_Standalone.ue[9].ipv4.ip packetDropHopLimitReached:vector(packetBytes):min inf
scalar SingleCell_Standalone.ue[9].ipv4.ip packetDropHopLimitReached:vector(packetBytes):max -inf
scalar SingleCell_Standalone.ue[9].ipv4.ip packetDropHopLimitReached:vector(packetBytes):starttime nan
scalar SingleCell_Standalone.ue[9].ipv4.ip packetDropHopLimitReached:vector(packetBytes):endtime nan
scalar SingleCell_Standalone.ue[9].ipv4.ip packetDropForwardingDisabled:vector(packetBytes):count 0
scalar SingleCell_Standalone.ue[9].ipv4.ip packetDropForwardingDisabled:vector(packetBytes):sum 0
scalar SingleCell_Standalone.ue[9].ipv4.ip packetDropForwardingDisabled:vector(packetBytes):sumweights 0
scalar SingleCell_Standalone.ue[9].ipv4.ip packetDropForwardingDisabled:vector(packetBytes):mean -nan
scalar SingleCell_Standalone.ue[9].ipv4.ip packetDropForwardingDisabled:vector(packetBytes):stddev nan
scalar SingleCell_Standalone.ue[9].ipv4.ip packetDropForwardingDisabled:vector(packetBytes):min inf
scalar SingleCell_Standalone.ue[9].ipv4.ip packetDropForwardingDisabled:vector(packetBytes):max -inf
scalar SingleCell_Standalone.ue[9].ipv4.ip packetDropForwardingDisabled:vector(packetBytes):starttime nan
scalar SingleCell_Standalone.ue[9].ipv4.ip packetDropForwardingDisabled:vector(packetBytes):endtime nan
scalar SingleCell_Standalone.ue[9].ipv4.ip packetDropNoInterfaceFound:vector(packetBytes):count 0
scalar SingleCell_Standalone.ue[9].ipv4.ip packetDropNoInterfaceFound:vector(packetBytes):sum 0
scalar SingleCell_Standalone.ue[9].ipv4.ip packetDropNoInterfaceFound:vector(packetBytes):sumweights 0
scalar SingleCell_Standalone.ue[9].ipv4.ip packetDropNoInterfaceFound:vector(packetBytes):mean -nan
scalar SingleCell_Standalone.ue[9].ipv4.ip packetDropNoInterfaceFound:vector(packetBytes):stddev nan
scalar SingleCell_Standalone.ue[9].ipv4.ip packetDropNoInterfaceFound:vector(packetBytes):min inf
scalar SingleCell_Standalone.ue[9].ipv4.ip packetDropNoInterfaceFound:vector(packetBytes):max -inf
scalar SingleCell_Standalone.ue[9].ipv4.ip packetDropNoInterfaceFound:vector(packetBytes):starttime nan
scalar SingleCell_Standalone.ue[9].ipv4.ip packetDropNoInterfaceFound:vector(packetBytes):endtime nan
scalar SingleCell_Standalone.ue[9].ipv4.ip packetDropNoRouteFound:vector(packetBytes):count 0
scalar SingleCell_Standalone.ue[9].ipv4.ip packetDropNoRouteFound:vector(packetBytes):sum 0
scalar SingleCell_Standalone.ue[9].ipv4.ip packetDropNoRouteFound:vector(packetBytes):sumweights 0
scalar SingleCell_Standalone.ue[9].ipv4.ip packetDropNoRouteFound:vector(packetBytes):mean -nan
scalar SingleCell_Standalone.ue[9].ipv4.ip packetDropNoRouteFound:vector(packetBytes):stddev nan
scalar SingleCell_Standalone.ue[9].ipv4.ip packetDropNoRouteFound:vector(packetBytes):min inf
scalar SingleCell_Standalone.ue[9].ipv4.ip packetDropNoRouteFound:vector(packetBytes):max -inf
scalar SingleCell_Standalone.ue[9].ipv4.ip packetDropNoRouteFound:vector(packetBytes):starttime nan
scalar SingleCell_Standalone.ue[9].ipv4.ip packetDropNoRouteFound:vector(packetBytes):endtime nan
scalar SingleCell_Standalone.ue[9].ipv4.ip packetDropUndefined:vector(packetBytes):count 0
scalar SingleCell_Standalone.ue[9].ipv4.ip packetDropUndefined:vector(packetBytes):sum 0
scalar SingleCell_Standalone.ue[9].ipv4.ip packetDropUndefined:vector(packetBytes):sumweights 0
scalar SingleCell_Standalone.ue[9].ipv4.ip packetDropUndefined:vector(packetBytes):mean -nan
scalar SingleCell_Standalone.ue[9].ipv4.ip packetDropUndefined:vector(packetBytes):stddev nan
scalar SingleCell_Standalone.ue[9].ipv4.ip packetDropUndefined:vector(packetBytes):min inf
scalar SingleCell_Standalone.ue[9].ipv4.ip packetDropUndefined:vector(packetBytes):max -inf
scalar SingleCell_Standalone.ue[9].ipv4.ip packetDropUndefined:vector(packetBytes):starttime nan
scalar SingleCell_Standalone.ue[9].ipv4.ip packetDropUndefined:vector(packetBytes):endtime nan
scalar SingleCell_Standalone.ue[9].ipv4.arp arpRequestSent:vector(packetBytes):count 0
scalar SingleCell_Standalone.ue[9].ipv4.arp arpRequestSent:vector(packetBytes):sum 0
scalar SingleCell_Standalone.ue[9].ipv4.arp arpRequestSent:vector(packetBytes):sumweights 0
scalar SingleCell_Standalone.ue[9].ipv4.arp arpRequestSent:vector(packetBytes):mean -nan
scalar SingleCell_Standalone.ue[9].ipv4.arp arpRequestSent:vector(packetBytes):stddev nan
scalar SingleCell_Standalone.ue[9].ipv4.arp arpRequestSent:vector(packetBytes):min inf
scalar SingleCell_Standalone.ue[9].ipv4.arp arpRequestSent:vector(packetBytes):max -inf
scalar SingleCell_Standalone.ue[9].ipv4.arp arpRequestSent:vector(packetBytes):starttime nan
scalar SingleCell_Standalone.ue[9].ipv4.arp arpRequestSent:vector(packetBytes):endtime nan
scalar SingleCell_Standalone.ue[9].ipv4.arp arpReplySent:vector(packetBytes):count 0
scalar SingleCell_Standalone.ue[9].ipv4.arp arpReplySent:vector(packetBytes):sum 0
scalar SingleCell_Standalone.ue[9].ipv4.arp arpReplySent:vector(packetBytes):sumweights 0
scalar SingleCell_Standalone.ue[9].ipv4.arp arpReplySent:vector(packetBytes):mean -nan
scalar SingleCell_Standalone.ue[9].ipv4.arp arpReplySent:vector(packetBytes):stddev nan
scalar SingleCell_Standalone.ue[9].ipv4.arp arpReplySent:vector(packetBytes):min inf
scalar SingleCell_Standalone.ue[9].ipv4.arp arpReplySent:vector(packetBytes):max -inf
scalar SingleCell_Standalone.ue[9].ipv4.arp arpReplySent:vector(packetBytes):starttime nan
scalar SingleCell_Standalone.ue[9].ipv4.arp arpReplySent:vector(packetBytes):endtime nan
scalar SingleCell_Standalone.ue[9].udp packetSent:vector(packetBytes):count 2500
scalar SingleCell_Standalone.ue[9].udp packetSent:vector(packetBytes):sum 5020000
scalar SingleCell_Standalone.ue[9].udp packetSent:vector(packetBytes):sumweights 2500
scalar SingleCell_Standalone.ue[9].udp packetSent:vector(packetBytes):mean 2008
scalar SingleCell_Standalone.ue[9].udp packetSent:vector(packetBytes):stddev 0
scalar SingleCell_Standalone.ue[9].udp packetSent:vector(packetBytes):min 2008
scalar SingleCell_Standalone.ue[9].udp packetSent:vector(packetBytes):max 2008
scalar SingleCell_Standalone.ue[9].udp packetSent:vector(packetBytes):starttime 0.00070439618500000016
scalar SingleCell_Standalone.ue[9].udp packetSent:vector(packetBytes):endtime 49.980704396185011
scalar SingleCell_Standalone.ue[9].udp packetReceived:vector(packetBytes):count 0
scalar SingleCell_Standalone.ue[9].udp packetReceived:vector(packetBytes):sum 0
scalar SingleCell_Standalone.ue[9].udp packetReceived:vector(packetBytes):sumweights 0
scalar SingleCell_Standalone.ue[9].udp packetReceived:vector(packetBytes):mean -nan
scalar SingleCell_Standalone.ue[9].udp packetReceived:vector(packetBytes):stddev nan
scalar SingleCell_Standalone.ue[9].udp packetReceived:vector(packetBytes):min inf
scalar SingleCell_Standalone.ue[9].udp packetReceived:vector(packetBytes):max -inf
scalar SingleCell_Standalone.ue[9].udp packetReceived:vector(packetBytes):starttime nan
scalar SingleCell_Standalone.ue[9].udp packetReceived:vector(packetBytes):endtime nan
scalar SingleCell_Standalone.ue[9].udp passedUpPk:vector(count):count 1
scalar SingleCell_Standalone.ue[9].udp passedUpPk:vector(count):sum 0
scalar SingleCell_Standalone.ue[9].udp passedUpPk:vector(count):sumweights 1
scalar SingleCell_Standalone.ue[9].udp passedUpPk:vector(count):mean 0
scalar SingleCell_Standalone.ue[9].udp passedUpPk:vector(count):stddev nan
scalar SingleCell_Standalone.ue[9].udp passedUpPk:vector(count):min 0
scalar SingleCell_Standalone.ue[9].udp passedUpPk:vector(count):max 0
scalar SingleCell_Standalone.ue[9].udp passedUpPk:vector(count):starttime 0
scalar SingleCell_Standalone.ue[9].udp passedUpPk:vector(count):endtime 0
scalar SingleCell_Standalone.ue[9].udp droppedPkWrongPort:vector(count):count 1
scalar SingleCell_Standalone.ue[9].udp droppedPkWrongPort:vector(count):sum 0
scalar SingleCell_Standalone.ue[9].udp droppedPkWrongPort:vector(count):sumweights 1
scalar SingleCell_Standalone.ue[9].udp droppedPkWrongPort:vector(count):mean 0
scalar SingleCell_Standalone.ue[9].udp droppedPkWrongPort:vector(count):stddev nan
scalar SingleCell_Standalone.ue[9].udp droppedPkWrongPort:vector(count):min 0
scalar SingleCell_Standalone.ue[9].udp droppedPkWrongPort:vector(count):max 0
scalar SingleCell_Standalone.ue[9].udp droppedPkWrongPort:vector(count):starttime 0
scalar SingleCell_Standalone.ue[9].udp droppedPkWrongPort:vector(count):endtime 0
scalar SingleCell_Standalone.ue[9].udp droppedPkBadChecksum:vector(count):count 1
scalar SingleCell_Standalone.ue[9].udp droppedPkBadChecksum:vector(count):sum 0
scalar SingleCell_Standalone.ue[9].udp droppedPkBadChecksum:vector(count):sumweights 1
scalar SingleCell_Standalone.ue[9].udp droppedPkBadChecksum:vector(count):mean 0
scalar SingleCell_Standalone.ue[9].udp droppedPkBadChecksum:vector(count):stddev nan
scalar SingleCell_Standalone.ue[9].udp droppedPkBadChecksum:vector(count):min 0
scalar SingleCell_Standalone.ue[9].udp droppedPkBadChecksum:vector(count):max 0
scalar SingleCell_Standalone.ue[9].udp droppedPkBadChecksum:vector(count):starttime 0
scalar SingleCell_Standalone.ue[9].udp droppedPkBadChecksum:vector(count):endtime 0
scalar SingleCell_Standalone.ue[9].app[0] cbrGeneratedThroughput:vector:count 1
scalar SingleCell_Standalone.ue[9].app[0] cbrGeneratedThroughput:vector:sum 100000
scalar SingleCell_Standalone.ue[9].app[0] cbrGeneratedThroughput:vector:sumweights 1
scalar SingleCell_Standalone.ue[9].app[0] cbrGeneratedThroughput:vector:mean 100000
scalar SingleCell_Standalone.ue[9].app[0] cbrGeneratedThroughput:vector:stddev nan
scalar SingleCell_Standalone.ue[9].app[0] cbrGeneratedThroughput:vector:min 100000
scalar SingleCell_Standalone.ue[9].app[0] cbrGeneratedThroughput:vector:max 100000
scalar SingleCell_Standalone.ue[9].app[0] cbrGeneratedThroughput:vector:starttime 50
scalar SingleCell_Standalone.ue[9].app[0] cbrGeneratedThroughput:vector:endtime 50
scalar SingleCell_Standalone.ue[9].app[0] cbrSentPkt:vector:count 0
scalar SingleCell_Standalone.ue[9].app[0] cbrSentPkt:vector:sum 0
scalar SingleCell_Standalone.ue[9].app[0] cbrSentPkt:vector:sumweights 0
scalar SingleCell_Standalone.ue[9].app[0] cbrSentPkt:vector:mean -nan
scalar SingleCell_Standalone.ue[9].app[0] cbrSentPkt:vector:stddev nan
scalar SingleCell_Standalone.ue[9].app[0] cbrSentPkt:vector:min inf
scalar SingleCell_Standalone.ue[9].app[0] cbrSentPkt:vector:max -inf
scalar SingleCell_Standalone.ue[9].app[0] cbrSentPkt:vector:starttime nan
scalar SingleCell_Standalone.ue[9].app[0] cbrSentPkt:vector:endtime nan

