version 3
run MultiCarrier-CBR-DL-0-20260712-21:01:58-254098
attr configname MultiCarrier-CBR-DL
attr datetime 20260712-21:01:58
attr datetimef 20260712-210158
attr experiment MultiCarrier-CBR-DL
attr inifile omnetpp.ini
attr iterationvars $numUe=10
attr iterationvarsd numUe=10
attr iterationvarsf numUe=10-
attr measurement $numUe=10
attr network simu5g.simulations.nr.networks.SingleCell_Standalone
attr processid 254098
attr repetition 0
attr replication #0
attr resultdir results
attr runnumber 0
attr seedset 0
itervar numUe 10
config **.param-recording false
config image-path /home/andras/projects/Simu5G-fork/simu5g-fork/images
config output-scalar-file results/omnetpp.ini-MultiCarrier-CBR-DL-#0.sca
config output-scalar-precision 17
config output-vector-file results/omnetpp.ini-MultiCarrier-CBR-DL-#0.vec
config output-vector-precision 17
config record-eventlog false
config sim-time-limit 50s
config extends "MultiCarrier, CBR-DL"
config *.carrierAggregation.numComponentCarriers 2
config *.carrierAggregation.componentCarrier[0].carrierFrequency 2GHz
config *.carrierAggregation.componentCarrier[0].numBands 6
config *.carrierAggregation.componentCarrier[1].carrierFrequency 6GHz
config *.carrierAggregation.componentCarrier[1].numBands 6
config *.gnb.cellularNic.numCarriers 2
config *.gnb.cellularNic.channelModel[0].componentCarrierModule "\"carrierAggregation.componentCarrier[0]\""
config *.gnb.cellularNic.channelModel[1].componentCarrierModule "\"carrierAggregation.componentCarrier[1]\""
config *.ue[*].cellularNic.numNrCarriers 2
config *.ue[*].cellularNic.nrChannelModel[0].componentCarrierModule "\"carrierAggregation.componentCarrier[0]\""
config *.ue[*].cellularNic.nrChannelModel[1].componentCarrierModule "\"carrierAggregation.componentCarrier[1]\""
config *.ue[*].app[*].typename CbrReceiver
config *.ue[*].app[*].localPort 1000
config *.server.app[*].samplingTime 0.02s
config *.server.app[*].destAddress "\"ue[\"+string(ancestorIndex(0))+\"]\""
config *.server.app[*].destPort 1000
config *.server.app[*].localPort 3088+ancestorIndex(0)
config *.server.app[*].typename CbrSender
config *.server.app[*].startTime uniform(0.01s,0.02s)
config *.server.app[*].packetSize 2000B
config sim-time-limit 50s
config network simu5g.simulations.nr.networks.SingleCell_Standalone
config **.routingRecorder.enabled false
config seed-set 0
config **.sctp.**.scalar-recording false
config **.sctp.**.vector-recording false
config **.vector-recording true
config **.mobility.constraintAreaMinZ 0m
config **.mobility.constraintAreaMaxZ 0m
config **.mobility.initFromDisplayString false
config **.eNodeBTxPower 40dBm
config **.sctp.nagleEnabled false
config **.sctp.enableHeartbeats false
config **.downlinkInterference true
config **.uplinkInterference true
config **.enableHandover true
config **.fbPeriod 10tti
config **.targetBler 0.01
config **.blerShift 5
config *.configurator.config "xmldoc(\"./demo.xml\")"
config *.gnb.mobility.initialX 300m
config *.gnb.mobility.initialY 300m
config *.numUe 10
config *.ue[*].servingNodeId 0
config *.ue[*].nrServingNodeId 1
config **.mobility.constraintAreaMaxX 700m
config **.mobility.constraintAreaMaxY 400m
config **.mobility.constraintAreaMinX 100m
config **.mobility.constraintAreaMinY 200m
config *.ue[*].mobility.typename RandomWaypointMobility
config *.ue[*].mobility.initialX uniform(100m,500m)
config *.ue[*].mobility.initialY uniform(200m,400m)
config *.ue[*].mobility.speed uniform(5mps,15mps)
config *.ue[*].numApps 1
config *.server.numApps 10
config output-scalar-file results/MultiCarrier-CBR-DL/$numUe=10-0.sca
config output-vector-file results/MultiCarrier-CBR-DL/$numUe=10-0.vec

scalar SingleCell_Standalone.server.lo[0].lo rcvdPkFromHl:count 0
scalar SingleCell_Standalone.server.lo[0].lo rcvdPkFromHl:sum(packetBytes) 0
scalar SingleCell_Standalone.server.lo[0].lo passedUpPk:count 0
scalar SingleCell_Standalone.server.lo[0].lo passedUpPk:sum(packetBytes) 0
scalar SingleCell_Standalone.server.lo[0] packetDropInterfaceDown:count 0
scalar SingleCell_Standalone.server.lo[0] packetDropInterfaceDown:sum(packetBytes) 0
scalar SingleCell_Standalone.server.lo[0] packetDropNoCarrier:count 0
scalar SingleCell_Standalone.server.lo[0] packetDropNoCarrier:sum(packetBytes) 0
scalar SingleCell_Standalone.server.ppp[0].queue queueLength:last 0
scalar SingleCell_Standalone.server.ppp[0].queue queueLength:max 0
scalar SingleCell_Standalone.server.ppp[0].queue queueLength:timeavg 0
scalar SingleCell_Standalone.server.ppp[0].queue queueBitLength:last 0
scalar SingleCell_Standalone.server.ppp[0].queue queueBitLength:max 0
scalar SingleCell_Standalone.server.ppp[0].queue queueBitLength:timeavg 0
scalar SingleCell_Standalone.server.ppp[0].queue outgoingPackets:count 25000
scalar SingleCell_Standalone.server.ppp[0].queue outgoingPacketLengths:sum 405600000
scalar SingleCell_Standalone.server.ppp[0].queue incomingPackets:count 25000
scalar SingleCell_Standalone.server.ppp[0].queue incomingPacketLengths:sum 405600000
scalar SingleCell_Standalone.server.ppp[0].queue droppedPacketsQueueOverflow:count 0
scalar SingleCell_Standalone.server.ppp[0].queue droppedPacketLengthsQueueOverflow:sum 0
scalar SingleCell_Standalone.server.ppp[0].ppp transmissionState:timeavg 0.00081399999999961993
scalar SingleCell_Standalone.server.ppp[0].ppp rxPkOk:count 0
scalar SingleCell_Standalone.server.ppp[0].ppp rxPkOk:sum(packetBytes) 0
scalar SingleCell_Standalone.server.ppp[0].ppp txPk:count 25000
scalar SingleCell_Standalone.server.ppp[0].ppp txPk:sum(packetBytes) 50875000
scalar SingleCell_Standalone.server.ppp[0].ppp rcvdPkFromHl:count 25000
scalar SingleCell_Standalone.server.ppp[0].ppp rcvdPkFromHl:sum(packetBytes) 50700000
scalar SingleCell_Standalone.server.ppp[0].ppp passedUpPk:count 0
scalar SingleCell_Standalone.server.ppp[0].ppp passedUpPk:sum(packetBytes) 0
scalar SingleCell_Standalone.server.ppp[0].ppp packetDropIncorrectlyReceived:count 0
scalar SingleCell_Standalone.server.ppp[0].ppp packetDropIncorrectlyReceived:sum(packetBytes) 0
scalar SingleCell_Standalone.server.ppp[0].ppp packetDropInterfaceDown:count 0
scalar SingleCell_Standalone.server.ppp[0].ppp packetDropInterfaceDown:sum(packetBytes) 0
scalar SingleCell_Standalone.server.ppp[0] packetDropInterfaceDown:count 0
scalar SingleCell_Standalone.server.ppp[0] packetDropInterfaceDown:sum(packetBytes) 0
scalar SingleCell_Standalone.server.ppp[0] packetDropNoCarrier:count 0
scalar SingleCell_Standalone.server.ppp[0] packetDropNoCarrier:sum(packetBytes) 0
scalar SingleCell_Standalone.server.ipv4.ip packetDropAddressResolutionFailed:count 0
scalar SingleCell_Standalone.server.ipv4.ip packetDropAddressResolutionFailed:sum(packetBytes) 0
scalar SingleCell_Standalone.server.ipv4.ip packetDropHopLimitReached:count 0
scalar SingleCell_Standalone.server.ipv4.ip packetDropHopLimitReached:sum(packetBytes) 0
scalar SingleCell_Standalone.server.ipv4.ip packetDropForwardingDisabled:count 0
scalar SingleCell_Standalone.server.ipv4.ip packetDropForwardingDisabled:sum(packetBytes) 0
scalar SingleCell_Standalone.server.ipv4.ip packetDropNoInterfaceFound:count 0
scalar SingleCell_Standalone.server.ipv4.ip packetDropNoInterfaceFound:sum(packetBytes) 0
scalar SingleCell_Standalone.server.ipv4.ip packetDropNoRouteFound:count 0
scalar SingleCell_Standalone.server.ipv4.ip packetDropNoRouteFound:sum(packetBytes) 0
scalar SingleCell_Standalone.server.ipv4.ip packetDropUndefined:count 0
scalar SingleCell_Standalone.server.ipv4.ip packetDropUndefined:sum(packetBytes) 0
scalar SingleCell_Standalone.server.ipv4.arp arpResolutionFailed:count 0
scalar SingleCell_Standalone.server.ipv4.arp arpResolutionCompleted:count 0
scalar SingleCell_Standalone.server.ipv4.arp arpResolutionInitiated:count 0
scalar SingleCell_Standalone.server.ipv4.arp arpReplySent:count 0
scalar SingleCell_Standalone.server.ipv4.arp arpReplySent:sum(packetBytes) 0
scalar SingleCell_Standalone.server.ipv4.arp arpRequestSent:count 0
scalar SingleCell_Standalone.server.ipv4.arp arpRequestSent:sum(packetBytes) 0
scalar SingleCell_Standalone.server.udp packetReceived:count 0
scalar SingleCell_Standalone.server.udp packetReceived:sum(packetBytes) 0
scalar SingleCell_Standalone.server.udp packetSent:count 25000
scalar SingleCell_Standalone.server.udp packetSent:sum(packetBytes) 50200000
scalar SingleCell_Standalone.server.udp passedUpPk:count 0
scalar SingleCell_Standalone.server.udp droppedPkWrongPort:count 0
scalar SingleCell_Standalone.server.udp droppedPkBadChecksum:count 0
scalar SingleCell_Standalone.server.app[0] cbrGeneratedBytes:mean 2000
scalar SingleCell_Standalone.server.app[0] cbrGeneratedBytes:last(sumPerDuration) 100003.7697726225
scalar SingleCell_Standalone.server.app[0] cbrGeneratedThroughput:simu5g_rateavg 100000
scalar SingleCell_Standalone.server.app[1] cbrGeneratedBytes:mean 2000
scalar SingleCell_Standalone.server.app[1] cbrGeneratedBytes:last(sumPerDuration) 100012.86357609107
scalar SingleCell_Standalone.server.app[1] cbrGeneratedThroughput:simu5g_rateavg 100000
scalar SingleCell_Standalone.server.app[2] cbrGeneratedBytes:mean 2000
scalar SingleCell_Standalone.server.app[2] cbrGeneratedBytes:last(sumPerDuration) 100010.47941841703
scalar SingleCell_Standalone.server.app[2] cbrGeneratedThroughput:simu5g_rateavg 100000
scalar SingleCell_Standalone.server.app[3] cbrGeneratedBytes:mean 2000
scalar SingleCell_Standalone.server.app[3] cbrGeneratedBytes:last(sumPerDuration) 100001.32321769882
scalar SingleCell_Standalone.server.app[3] cbrGeneratedThroughput:simu5g_rateavg 100000
scalar SingleCell_Standalone.server.app[4] cbrGeneratedBytes:mean 2000
scalar SingleCell_Standalone.server.app[4] cbrGeneratedBytes:last(sumPerDuration) 100009.53778976359
scalar SingleCell_Standalone.server.app[4] cbrGeneratedThroughput:simu5g_rateavg 100000
scalar SingleCell_Standalone.server.app[5] cbrGeneratedBytes:mean 2000
scalar SingleCell_Standalone.server.app[5] cbrGeneratedBytes:last(sumPerDuration) 100012.67506316866
scalar SingleCell_Standalone.server.app[5] cbrGeneratedThroughput:simu5g_rateavg 100000
scalar SingleCell_Standalone.server.app[6] cbrGeneratedBytes:mean 2000
scalar SingleCell_Standalone.server.app[6] cbrGeneratedBytes:last(sumPerDuration) 100014.99183554442
scalar SingleCell_Standalone.server.app[6] cbrGeneratedThroughput:simu5g_rateavg 100000
scalar SingleCell_Standalone.server.app[7] cbrGeneratedBytes:mean 2000
scalar SingleCell_Standalone.server.app[7] cbrGeneratedBytes:last(sumPerDuration) 100001.47719420471
scalar SingleCell_Standalone.server.app[7] cbrGeneratedThroughput:simu5g_rateavg 100000
scalar SingleCell_Standalone.server.app[8] cbrGeneratedBytes:mean 2000
scalar SingleCell_Standalone.server.app[8] cbrGeneratedBytes:last(sumPerDuration) 100007.89976362936
scalar SingleCell_Standalone.server.app[8] cbrGeneratedThroughput:simu5g_rateavg 100000
scalar SingleCell_Standalone.server.app[9] cbrGeneratedBytes:mean 2000
scalar SingleCell_Standalone.server.app[9] cbrGeneratedBytes:last(sumPerDuration) 100018.83219769894
scalar SingleCell_Standalone.server.app[9] cbrGeneratedThroughput:simu5g_rateavg 100000
scalar SingleCell_Standalone.router.lo[0].lo rcvdPkFromHl:count 0
scalar SingleCell_Standalone.router.lo[0].lo rcvdPkFromHl:sum(packetBytes) 0
scalar SingleCell_Standalone.router.lo[0].lo passedUpPk:count 0
scalar SingleCell_Standalone.router.lo[0].lo passedUpPk:sum(packetBytes) 0
scalar SingleCell_Standalone.router.lo[0] packetDropInterfaceDown:count 0
scalar SingleCell_Standalone.router.lo[0] packetDropInterfaceDown:sum(packetBytes) 0
scalar SingleCell_Standalone.router.lo[0] packetDropNoCarrier:count 0
scalar SingleCell_Standalone.router.lo[0] packetDropNoCarrier:sum(packetBytes) 0
scalar SingleCell_Standalone.router.ppp[0].queue queueLength:last 0
scalar SingleCell_Standalone.router.ppp[0].queue queueLength:max 0
scalar SingleCell_Standalone.router.ppp[0].queue queueLength:timeavg 0
scalar SingleCell_Standalone.router.ppp[0].queue queueBitLength:last 0
scalar SingleCell_Standalone.router.ppp[0].queue queueBitLength:max 0
scalar SingleCell_Standalone.router.ppp[0].queue queueBitLength:timeavg 0
scalar SingleCell_Standalone.router.ppp[0].queue outgoingPackets:count 0
scalar SingleCell_Standalone.router.ppp[0].queue outgoingPacketLengths:sum 0
scalar SingleCell_Standalone.router.ppp[0].queue incomingPackets:count 0
scalar SingleCell_Standalone.router.ppp[0].queue incomingPacketLengths:sum 0
scalar SingleCell_Standalone.router.ppp[0].queue droppedPacketsQueueOverflow:count 0
scalar SingleCell_Standalone.router.ppp[0].queue droppedPacketLengthsQueueOverflow:sum 0
scalar SingleCell_Standalone.router.ppp[0].ppp transmissionState:timeavg 0
scalar SingleCell_Standalone.router.ppp[0].ppp rxPkOk:count 25000
scalar SingleCell_Standalone.router.ppp[0].ppp rxPkOk:sum(packetBytes) 50875000
scalar SingleCell_Standalone.router.ppp[0].ppp txPk:count 0
scalar SingleCell_Standalone.router.ppp[0].ppp txPk:sum(packetBytes) 0
scalar SingleCell_Standalone.router.ppp[0].ppp rcvdPkFromHl:count 0
scalar SingleCell_Standalone.router.ppp[0].ppp rcvdPkFromHl:sum(packetBytes) 0
scalar SingleCell_Standalone.router.ppp[0].ppp passedUpPk:count 25000
scalar SingleCell_Standalone.router.ppp[0].ppp passedUpPk:sum(packetBytes) 50700000
scalar SingleCell_Standalone.router.ppp[0].ppp packetDropIncorrectlyReceived:count 0
scalar SingleCell_Standalone.router.ppp[0].ppp packetDropIncorrectlyReceived:sum(packetBytes) 0
scalar SingleCell_Standalone.router.ppp[0].ppp packetDropInterfaceDown:count 0
scalar SingleCell_Standalone.router.ppp[0].ppp packetDropInterfaceDown:sum(packetBytes) 0
scalar SingleCell_Standalone.router.ppp[0] packetDropInterfaceDown:count 0
scalar SingleCell_Standalone.router.ppp[0] packetDropInterfaceDown:sum(packetBytes) 0
scalar SingleCell_Standalone.router.ppp[0] packetDropNoCarrier:count 0
scalar SingleCell_Standalone.router.ppp[0] packetDropNoCarrier:sum(packetBytes) 0
scalar SingleCell_Standalone.router.ppp[1].queue queueLength:last 0
scalar SingleCell_Standalone.router.ppp[1].queue queueLength:max 0
scalar SingleCell_Standalone.router.ppp[1].queue queueLength:timeavg 0
scalar SingleCell_Standalone.router.ppp[1].queue queueBitLength:last 0
scalar SingleCell_Standalone.router.ppp[1].queue queueBitLength:max 0
scalar SingleCell_Standalone.router.ppp[1].queue queueBitLength:timeavg 0
scalar SingleCell_Standalone.router.ppp[1].queue outgoingPackets:count 25000
scalar SingleCell_Standalone.router.ppp[1].queue outgoingPacketLengths:sum 405600000
scalar SingleCell_Standalone.router.ppp[1].queue incomingPackets:count 25000
scalar SingleCell_Standalone.router.ppp[1].queue incomingPacketLengths:sum 405600000
scalar SingleCell_Standalone.router.ppp[1].queue droppedPacketsQueueOverflow:count 0
scalar SingleCell_Standalone.router.ppp[1].queue droppedPacketLengthsQueueOverflow:sum 0
scalar SingleCell_Standalone.router.ppp[1].ppp transmissionState:timeavg 0.00081399999999961993
scalar SingleCell_Standalone.router.ppp[1].ppp rxPkOk:count 0
scalar SingleCell_Standalone.router.ppp[1].ppp rxPkOk:sum(packetBytes) 0
scalar SingleCell_Standalone.router.ppp[1].ppp txPk:count 25000
scalar SingleCell_Standalone.router.ppp[1].ppp txPk:sum(packetBytes) 50875000
scalar SingleCell_Standalone.router.ppp[1].ppp rcvdPkFromHl:count 25000
scalar SingleCell_Standalone.router.ppp[1].ppp rcvdPkFromHl:sum(packetBytes) 50700000
scalar SingleCell_Standalone.router.ppp[1].ppp passedUpPk:count 0
scalar SingleCell_Standalone.router.ppp[1].ppp passedUpPk:sum(packetBytes) 0
scalar SingleCell_Standalone.router.ppp[1].ppp packetDropIncorrectlyReceived:count 0
scalar SingleCell_Standalone.router.ppp[1].ppp packetDropIncorrectlyReceived:sum(packetBytes) 0
scalar SingleCell_Standalone.router.ppp[1].ppp packetDropInterfaceDown:count 0
scalar SingleCell_Standalone.router.ppp[1].ppp packetDropInterfaceDown:sum(packetBytes) 0
scalar SingleCell_Standalone.router.ppp[1] packetDropInterfaceDown:count 0
scalar SingleCell_Standalone.router.ppp[1] packetDropInterfaceDown:sum(packetBytes) 0
scalar SingleCell_Standalone.router.ppp[1] packetDropNoCarrier:count 0
scalar SingleCell_Standalone.router.ppp[1] packetDropNoCarrier:sum(packetBytes) 0
scalar SingleCell_Standalone.router.ipv4.ip packetDropAddressResolutionFailed:count 0
scalar SingleCell_Standalone.router.ipv4.ip packetDropAddressResolutionFailed:sum(packetBytes) 0
scalar SingleCell_Standalone.router.ipv4.ip packetDropHopLimitReached:count 0
scalar SingleCell_Standalone.router.ipv4.ip packetDropHopLimitReached:sum(packetBytes) 0
scalar SingleCell_Standalone.router.ipv4.ip packetDropForwardingDisabled:count 0
scalar SingleCell_Standalone.router.ipv4.ip packetDropForwardingDisabled:sum(packetBytes) 0
scalar SingleCell_Standalone.router.ipv4.ip packetDropNoInterfaceFound:count 0
scalar SingleCell_Standalone.router.ipv4.ip packetDropNoInterfaceFound:sum(packetBytes) 0
scalar SingleCell_Standalone.router.ipv4.ip packetDropNoRouteFound:count 0
scalar SingleCell_Standalone.router.ipv4.ip packetDropNoRouteFound:sum(packetBytes) 0
scalar SingleCell_Standalone.router.ipv4.ip packetDropUndefined:count 0
scalar SingleCell_Standalone.router.ipv4.ip packetDropUndefined:sum(packetBytes) 0
scalar SingleCell_Standalone.router.ipv4.arp arpResolutionFailed:count 0
scalar SingleCell_Standalone.router.ipv4.arp arpResolutionCompleted:count 0
scalar SingleCell_Standalone.router.ipv4.arp arpResolutionInitiated:count 0
scalar SingleCell_Standalone.router.ipv4.arp arpReplySent:count 0
scalar SingleCell_Standalone.router.ipv4.arp arpReplySent:sum(packetBytes) 0
scalar SingleCell_Standalone.router.ipv4.arp arpRequestSent:count 0
scalar SingleCell_Standalone.router.ipv4.arp arpRequestSent:sum(packetBytes) 0
scalar SingleCell_Standalone.upf.lo[0].lo rcvdPkFromHl:count 0
scalar SingleCell_Standalone.upf.lo[0].lo rcvdPkFromHl:sum(packetBytes) 0
scalar SingleCell_Standalone.upf.lo[0].lo passedUpPk:count 0
scalar SingleCell_Standalone.upf.lo[0].lo passedUpPk:sum(packetBytes) 0
scalar SingleCell_Standalone.upf.lo[0] packetDropInterfaceDown:count 0
scalar SingleCell_Standalone.upf.lo[0] packetDropInterfaceDown:sum(packetBytes) 0
scalar SingleCell_Standalone.upf.lo[0] packetDropNoCarrier:count 0
scalar SingleCell_Standalone.upf.lo[0] packetDropNoCarrier:sum(packetBytes) 0
scalar SingleCell_Standalone.upf.ppp[0].queue queueLength:last 0
scalar SingleCell_Standalone.upf.ppp[0].queue queueLength:max 0
scalar SingleCell_Standalone.upf.ppp[0].queue queueLength:timeavg 0
scalar SingleCell_Standalone.upf.ppp[0].queue queueBitLength:last 0
scalar SingleCell_Standalone.upf.ppp[0].queue queueBitLength:max 0
scalar SingleCell_Standalone.upf.ppp[0].queue queueBitLength:timeavg 0
scalar SingleCell_Standalone.upf.ppp[0].queue outgoingPackets:count 25000
scalar SingleCell_Standalone.upf.ppp[0].queue outgoingPacketLengths:sum 412800000
scalar SingleCell_Standalone.upf.ppp[0].queue incomingPackets:count 25000
scalar SingleCell_Standalone.upf.ppp[0].queue incomingPacketLengths:sum 412800000
scalar SingleCell_Standalone.upf.ppp[0].queue droppedPacketsQueueOverflow:count 0
scalar SingleCell_Standalone.upf.ppp[0].queue droppedPacketLengthsQueueOverflow:sum 0
scalar SingleCell_Standalone.upf.ppp[0].ppp transmissionState:timeavg 0.00082839999999979213
scalar SingleCell_Standalone.upf.ppp[0].ppp rxPkOk:count 0
scalar SingleCell_Standalone.upf.ppp[0].ppp rxPkOk:sum(packetBytes) 0
scalar SingleCell_Standalone.upf.ppp[0].ppp txPk:count 25000
scalar SingleCell_Standalone.upf.ppp[0].ppp txPk:sum(packetBytes) 51775000
scalar SingleCell_Standalone.upf.ppp[0].ppp rcvdPkFromHl:count 25000
scalar SingleCell_Standalone.upf.ppp[0].ppp rcvdPkFromHl:sum(packetBytes) 51600000
scalar SingleCell_Standalone.upf.ppp[0].ppp passedUpPk:count 0
scalar SingleCell_Standalone.upf.ppp[0].ppp passedUpPk:sum(packetBytes) 0
scalar SingleCell_Standalone.upf.ppp[0].ppp packetDropIncorrectlyReceived:count 0
scalar SingleCell_Standalone.upf.ppp[0].ppp packetDropIncorrectlyReceived:sum(packetBytes) 0
scalar SingleCell_Standalone.upf.ppp[0].ppp packetDropInterfaceDown:count 0
scalar SingleCell_Standalone.upf.ppp[0].ppp packetDropInterfaceDown:sum(packetBytes) 0
scalar SingleCell_Standalone.upf.ppp[0] packetDropInterfaceDown:count 0
scalar SingleCell_Standalone.upf.ppp[0] packetDropInterfaceDown:sum(packetBytes) 0
scalar SingleCell_Standalone.upf.ppp[0] packetDropNoCarrier:count 0
scalar SingleCell_Standalone.upf.ppp[0] packetDropNoCarrier:sum(packetBytes) 0
scalar SingleCell_Standalone.upf.ipv4.ip packetDropAddressResolutionFailed:count 0
scalar SingleCell_Standalone.upf.ipv4.ip packetDropAddressResolutionFailed:sum(packetBytes) 0
scalar SingleCell_Standalone.upf.ipv4.ip packetDropHopLimitReached:count 0
scalar SingleCell_Standalone.upf.ipv4.ip packetDropHopLimitReached:sum(packetBytes) 0
scalar SingleCell_Standalone.upf.ipv4.ip packetDropForwardingDisabled:count 0
scalar SingleCell_Standalone.upf.ipv4.ip packetDropForwardingDisabled:sum(packetBytes) 0
scalar SingleCell_Standalone.upf.ipv4.ip packetDropNoInterfaceFound:count 0
scalar SingleCell_Standalone.upf.ipv4.ip packetDropNoInterfaceFound:sum(packetBytes) 0
scalar SingleCell_Standalone.upf.ipv4.ip packetDropNoRouteFound:count 0
scalar SingleCell_Standalone.upf.ipv4.ip packetDropNoRouteFound:sum(packetBytes) 0
scalar SingleCell_Standalone.upf.ipv4.ip packetDropUndefined:count 0
scalar SingleCell_Standalone.upf.ipv4.ip packetDropUndefined:sum(packetBytes) 0
scalar SingleCell_Standalone.upf.ipv4.arp arpResolutionFailed:count 0
scalar SingleCell_Standalone.upf.ipv4.arp arpResolutionCompleted:count 0
scalar SingleCell_Standalone.upf.ipv4.arp arpResolutionInitiated:count 0
scalar SingleCell_Standalone.upf.ipv4.arp arpReplySent:count 0
scalar SingleCell_Standalone.upf.ipv4.arp arpReplySent:sum(packetBytes) 0
scalar SingleCell_Standalone.upf.ipv4.arp arpRequestSent:count 0
scalar SingleCell_Standalone.upf.ipv4.arp arpRequestSent:sum(packetBytes) 0
scalar SingleCell_Standalone.upf.udp packetReceived:count 0
scalar SingleCell_Standalone.upf.udp packetReceived:sum(packetBytes) 0
scalar SingleCell_Standalone.upf.udp packetSent:count 25000
scalar SingleCell_Standalone.upf.udp packetSent:sum(packetBytes) 51100000
scalar SingleCell_Standalone.upf.udp passedUpPk:count 0
scalar SingleCell_Standalone.upf.udp droppedPkWrongPort:count 0
scalar SingleCell_Standalone.upf.udp droppedPkBadChecksum:count 0
scalar SingleCell_Standalone.upf.dnPpp.queue queueLength:last 0
scalar SingleCell_Standalone.upf.dnPpp.queue queueLength:max 0
scalar SingleCell_Standalone.upf.dnPpp.queue queueLength:timeavg 0
scalar SingleCell_Standalone.upf.dnPpp.queue queueBitLength:last 0
scalar SingleCell_Standalone.upf.dnPpp.queue queueBitLength:max 0
scalar SingleCell_Standalone.upf.dnPpp.queue queueBitLength:timeavg 0
scalar SingleCell_Standalone.upf.dnPpp.queue outgoingPackets:count 0
scalar SingleCell_Standalone.upf.dnPpp.queue outgoingPacketLengths:sum 0
scalar SingleCell_Standalone.upf.dnPpp.queue incomingPackets:count 0
scalar SingleCell_Standalone.upf.dnPpp.queue incomingPacketLengths:sum 0
scalar SingleCell_Standalone.upf.dnPpp.queue droppedPacketsQueueOverflow:count 0
scalar SingleCell_Standalone.upf.dnPpp.queue droppedPacketLengthsQueueOverflow:sum 0
scalar SingleCell_Standalone.upf.dnPpp.ppp transmissionState:timeavg 0
scalar SingleCell_Standalone.upf.dnPpp.ppp rxPkOk:count 25000
scalar SingleCell_Standalone.upf.dnPpp.ppp rxPkOk:sum(packetBytes) 50875000
scalar SingleCell_Standalone.upf.dnPpp.ppp txPk:count 0
scalar SingleCell_Standalone.upf.dnPpp.ppp txPk:sum(packetBytes) 0
scalar SingleCell_Standalone.upf.dnPpp.ppp rcvdPkFromHl:count 0
scalar SingleCell_Standalone.upf.dnPpp.ppp rcvdPkFromHl:sum(packetBytes) 0
scalar SingleCell_Standalone.upf.dnPpp.ppp passedUpPk:count 25000
scalar SingleCell_Standalone.upf.dnPpp.ppp passedUpPk:sum(packetBytes) 50700000
scalar SingleCell_Standalone.upf.dnPpp.ppp packetDropIncorrectlyReceived:count 0
scalar SingleCell_Standalone.upf.dnPpp.ppp packetDropIncorrectlyReceived:sum(packetBytes) 0
scalar SingleCell_Standalone.upf.dnPpp.ppp packetDropInterfaceDown:count 0
scalar SingleCell_Standalone.upf.dnPpp.ppp packetDropInterfaceDown:sum(packetBytes) 0
scalar SingleCell_Standalone.upf.dnPpp packetDropInterfaceDown:count 0
scalar SingleCell_Standalone.upf.dnPpp packetDropInterfaceDown:sum(packetBytes) 0
scalar SingleCell_Standalone.upf.dnPpp packetDropNoCarrier:count 0
scalar SingleCell_Standalone.upf.dnPpp packetDropNoCarrier:sum(packetBytes) 0
scalar SingleCell_Standalone.iUpf.lo[0].lo rcvdPkFromHl:count 0
scalar SingleCell_Standalone.iUpf.lo[0].lo rcvdPkFromHl:sum(packetBytes) 0
scalar SingleCell_Standalone.iUpf.lo[0].lo passedUpPk:count 0
scalar SingleCell_Standalone.iUpf.lo[0].lo passedUpPk:sum(packetBytes) 0
scalar SingleCell_Standalone.iUpf.lo[0] packetDropInterfaceDown:count 0
scalar SingleCell_Standalone.iUpf.lo[0] packetDropInterfaceDown:sum(packetBytes) 0
scalar SingleCell_Standalone.iUpf.lo[0] packetDropNoCarrier:count 0
scalar SingleCell_Standalone.iUpf.lo[0] packetDropNoCarrier:sum(packetBytes) 0
scalar SingleCell_Standalone.iUpf.ppp[0].queue queueLength:last 0
scalar SingleCell_Standalone.iUpf.ppp[0].queue queueLength:max 0
scalar SingleCell_Standalone.iUpf.ppp[0].queue queueLength:timeavg 0
scalar SingleCell_Standalone.iUpf.ppp[0].queue queueBitLength:last 0
scalar SingleCell_Standalone.iUpf.ppp[0].queue queueBitLength:max 0
scalar SingleCell_Standalone.iUpf.ppp[0].queue queueBitLength:timeavg 0
scalar SingleCell_Standalone.iUpf.ppp[0].queue outgoingPackets:count 0
scalar SingleCell_Standalone.iUpf.ppp[0].queue outgoingPacketLengths:sum 0
scalar SingleCell_Standalone.iUpf.ppp[0].queue incomingPackets:count 0
scalar SingleCell_Standalone.iUpf.ppp[0].queue incomingPacketLengths:sum 0
scalar SingleCell_Standalone.iUpf.ppp[0].queue droppedPacketsQueueOverflow:count 0
scalar SingleCell_Standalone.iUpf.ppp[0].queue droppedPacketLengthsQueueOverflow:sum 0
scalar SingleCell_Standalone.iUpf.ppp[0].ppp transmissionState:timeavg 0
scalar SingleCell_Standalone.iUpf.ppp[0].ppp rxPkOk:count 25000
scalar SingleCell_Standalone.iUpf.ppp[0].ppp rxPkOk:sum(packetBytes) 51775000
scalar SingleCell_Standalone.iUpf.ppp[0].ppp txPk:count 0
scalar SingleCell_Standalone.iUpf.ppp[0].ppp txPk:sum(packetBytes) 0
scalar SingleCell_Standalone.iUpf.ppp[0].ppp rcvdPkFromHl:count 0
scalar SingleCell_Standalone.iUpf.ppp[0].ppp rcvdPkFromHl:sum(packetBytes) 0
scalar SingleCell_Standalone.iUpf.ppp[0].ppp passedUpPk:count 25000
scalar SingleCell_Standalone.iUpf.ppp[0].ppp passedUpPk:sum(packetBytes) 51600000
scalar SingleCell_Standalone.iUpf.ppp[0].ppp packetDropIncorrectlyReceived:count 0
scalar SingleCell_Standalone.iUpf.ppp[0].ppp packetDropIncorrectlyReceived:sum(packetBytes) 0
scalar SingleCell_Standalone.iUpf.ppp[0].ppp packetDropInterfaceDown:count 0
scalar SingleCell_Standalone.iUpf.ppp[0].ppp packetDropInterfaceDown:sum(packetBytes) 0
scalar SingleCell_Standalone.iUpf.ppp[0] packetDropInterfaceDown:count 0
scalar SingleCell_Standalone.iUpf.ppp[0] packetDropInterfaceDown:sum(packetBytes) 0
scalar SingleCell_Standalone.iUpf.ppp[0] packetDropNoCarrier:count 0
scalar SingleCell_Standalone.iUpf.ppp[0] packetDropNoCarrier:sum(packetBytes) 0
scalar SingleCell_Standalone.iUpf.ppp[1].queue queueLength:last 0
scalar SingleCell_Standalone.iUpf.ppp[1].queue queueLength:max 0
scalar SingleCell_Standalone.iUpf.ppp[1].queue queueLength:timeavg 0
scalar SingleCell_Standalone.iUpf.ppp[1].queue queueBitLength:last 0
scalar SingleCell_Standalone.iUpf.ppp[1].queue queueBitLength:max 0
scalar SingleCell_Standalone.iUpf.ppp[1].queue queueBitLength:timeavg 0
scalar SingleCell_Standalone.iUpf.ppp[1].queue outgoingPackets:count 25000
scalar SingleCell_Standalone.iUpf.ppp[1].queue outgoingPacketLengths:sum 412800000
scalar SingleCell_Standalone.iUpf.ppp[1].queue incomingPackets:count 25000
scalar SingleCell_Standalone.iUpf.ppp[1].queue incomingPacketLengths:sum 412800000
scalar SingleCell_Standalone.iUpf.ppp[1].queue droppedPacketsQueueOverflow:count 0
scalar SingleCell_Standalone.iUpf.ppp[1].queue droppedPacketLengthsQueueOverflow:sum 0
scalar SingleCell_Standalone.iUpf.ppp[1].ppp transmissionState:timeavg 0.00082839999999979213
scalar SingleCell_Standalone.iUpf.ppp[1].ppp rxPkOk:count 0
scalar SingleCell_Standalone.iUpf.ppp[1].ppp rxPkOk:sum(packetBytes) 0
scalar SingleCell_Standalone.iUpf.ppp[1].ppp txPk:count 25000
scalar SingleCell_Standalone.iUpf.ppp[1].ppp txPk:sum(packetBytes) 51775000
scalar SingleCell_Standalone.iUpf.ppp[1].ppp rcvdPkFromHl:count 25000
scalar SingleCell_Standalone.iUpf.ppp[1].ppp rcvdPkFromHl:sum(packetBytes) 51600000
scalar SingleCell_Standalone.iUpf.ppp[1].ppp passedUpPk:count 0
scalar SingleCell_Standalone.iUpf.ppp[1].ppp passedUpPk:sum(packetBytes) 0
scalar SingleCell_Standalone.iUpf.ppp[1].ppp packetDropIncorrectlyReceived:count 0
scalar SingleCell_Standalone.iUpf.ppp[1].ppp packetDropIncorrectlyReceived:sum(packetBytes) 0
scalar SingleCell_Standalone.iUpf.ppp[1].ppp packetDropInterfaceDown:count 0
scalar SingleCell_Standalone.iUpf.ppp[1].ppp packetDropInterfaceDown:sum(packetBytes) 0
scalar SingleCell_Standalone.iUpf.ppp[1] packetDropInterfaceDown:count 0
scalar SingleCell_Standalone.iUpf.ppp[1] packetDropInterfaceDown:sum(packetBytes) 0
scalar SingleCell_Standalone.iUpf.ppp[1] packetDropNoCarrier:count 0
scalar SingleCell_Standalone.iUpf.ppp[1] packetDropNoCarrier:sum(packetBytes) 0
scalar SingleCell_Standalone.iUpf.ipv4.ip packetDropAddressResolutionFailed:count 0
scalar SingleCell_Standalone.iUpf.ipv4.ip packetDropAddressResolutionFailed:sum(packetBytes) 0
scalar SingleCell_Standalone.iUpf.ipv4.ip packetDropHopLimitReached:count 0
scalar SingleCell_Standalone.iUpf.ipv4.ip packetDropHopLimitReached:sum(packetBytes) 0
scalar SingleCell_Standalone.iUpf.ipv4.ip packetDropForwardingDisabled:count 0
scalar SingleCell_Standalone.iUpf.ipv4.ip packetDropForwardingDisabled:sum(packetBytes) 0
scalar SingleCell_Standalone.iUpf.ipv4.ip packetDropNoInterfaceFound:count 0
scalar SingleCell_Standalone.iUpf.ipv4.ip packetDropNoInterfaceFound:sum(packetBytes) 0
scalar SingleCell_Standalone.iUpf.ipv4.ip packetDropNoRouteFound:count 0
scalar SingleCell_Standalone.iUpf.ipv4.ip packetDropNoRouteFound:sum(packetBytes) 0
scalar SingleCell_Standalone.iUpf.ipv4.ip packetDropUndefined:count 0
scalar SingleCell_Standalone.iUpf.ipv4.ip packetDropUndefined:sum(packetBytes) 0
scalar SingleCell_Standalone.iUpf.ipv4.arp arpResolutionFailed:count 0
scalar SingleCell_Standalone.iUpf.ipv4.arp arpResolutionCompleted:count 0
scalar SingleCell_Standalone.iUpf.ipv4.arp arpResolutionInitiated:count 0
scalar SingleCell_Standalone.iUpf.ipv4.arp arpReplySent:count 0
scalar SingleCell_Standalone.iUpf.ipv4.arp arpReplySent:sum(packetBytes) 0
scalar SingleCell_Standalone.iUpf.ipv4.arp arpRequestSent:count 0
scalar SingleCell_Standalone.iUpf.ipv4.arp arpRequestSent:sum(packetBytes) 0
scalar SingleCell_Standalone.iUpf.udp packetReceived:count 0
scalar SingleCell_Standalone.iUpf.udp packetReceived:sum(packetBytes) 0
scalar SingleCell_Standalone.iUpf.udp packetSent:count 0
scalar SingleCell_Standalone.iUpf.udp packetSent:sum(packetBytes) 0
scalar SingleCell_Standalone.iUpf.udp passedUpPk:count 0
scalar SingleCell_Standalone.iUpf.udp droppedPkWrongPort:count 0
scalar SingleCell_Standalone.iUpf.udp droppedPkBadChecksum:count 0
scalar SingleCell_Standalone.iUpf.dnPpp.queue queueLength:last 0
scalar SingleCell_Standalone.iUpf.dnPpp.queue queueLength:max 0
scalar SingleCell_Standalone.iUpf.dnPpp.queue queueLength:timeavg 0
scalar SingleCell_Standalone.iUpf.dnPpp.queue queueBitLength:last 0
scalar SingleCell_Standalone.iUpf.dnPpp.queue queueBitLength:max 0
scalar SingleCell_Standalone.iUpf.dnPpp.queue queueBitLength:timeavg 0
scalar SingleCell_Standalone.iUpf.dnPpp.queue outgoingPackets:count 0
scalar SingleCell_Standalone.iUpf.dnPpp.queue outgoingPacketLengths:sum 0
scalar SingleCell_Standalone.iUpf.dnPpp.queue incomingPackets:count 0
scalar SingleCell_Standalone.iUpf.dnPpp.queue incomingPacketLengths:sum 0
scalar SingleCell_Standalone.iUpf.dnPpp.queue droppedPacketsQueueOverflow:count 0
scalar SingleCell_Standalone.iUpf.dnPpp.queue droppedPacketLengthsQueueOverflow:sum 0
scalar SingleCell_Standalone.iUpf.dnPpp.ppp transmissionState:timeavg 0
scalar SingleCell_Standalone.iUpf.dnPpp.ppp rxPkOk:count 0
scalar SingleCell_Standalone.iUpf.dnPpp.ppp rxPkOk:sum(packetBytes) 0
scalar SingleCell_Standalone.iUpf.dnPpp.ppp txPk:count 0
scalar SingleCell_Standalone.iUpf.dnPpp.ppp txPk:sum(packetBytes) 0
scalar SingleCell_Standalone.iUpf.dnPpp.ppp rcvdPkFromHl:count 0
scalar SingleCell_Standalone.iUpf.dnPpp.ppp rcvdPkFromHl:sum(packetBytes) 0
scalar SingleCell_Standalone.iUpf.dnPpp.ppp passedUpPk:count 0
scalar SingleCell_Standalone.iUpf.dnPpp.ppp passedUpPk:sum(packetBytes) 0
scalar SingleCell_Standalone.iUpf.dnPpp.ppp packetDropIncorrectlyReceived:count 0
scalar SingleCell_Standalone.iUpf.dnPpp.ppp packetDropIncorrectlyReceived:sum(packetBytes) 0
scalar SingleCell_Standalone.iUpf.dnPpp.ppp packetDropInterfaceDown:count 0
scalar SingleCell_Standalone.iUpf.dnPpp.ppp packetDropInterfaceDown:sum(packetBytes) 0
scalar SingleCell_Standalone.iUpf.dnPpp packetDropInterfaceDown:count 0
scalar SingleCell_Standalone.iUpf.dnPpp packetDropInterfaceDown:sum(packetBytes) 0
scalar SingleCell_Standalone.iUpf.dnPpp packetDropNoCarrier:count 0
scalar SingleCell_Standalone.iUpf.dnPpp packetDropNoCarrier:sum(packetBytes) 0
scalar SingleCell_Standalone.gnb.cellularNic.rlcMux rlcCellThroughputD2D:simu5g_rateavg -nan
scalar SingleCell_Standalone.gnb.cellularNic.rlcMux rlcPduThroughputD2D:simu5g_rateavg -nan
scalar SingleCell_Standalone.gnb.cellularNic.rlcMux rlcPduDelayD2D:mean -nan
scalar SingleCell_Standalone.gnb.cellularNic.rlcMux rlcThroughputD2D:simu5g_rateavg -nan
scalar SingleCell_Standalone.gnb.cellularNic.rlcMux rlcDelayD2D:mean -nan
scalar SingleCell_Standalone.gnb.cellularNic.rlcMux rlcCellThroughputUl:simu5g_rateavg -nan
scalar SingleCell_Standalone.gnb.cellularNic.rlcMux rlcCellThroughputDl:simu5g_rateavg 1011251.663432059
scalar SingleCell_Standalone.gnb.cellularNic.rlcMux rlcPduThroughputUl:simu5g_rateavg -nan
scalar SingleCell_Standalone.gnb.cellularNic.rlcMux rlcPduThroughputDl:simu5g_rateavg -nan
scalar SingleCell_Standalone.gnb.cellularNic.rlcMux rlcPduDelayUl:mean -nan
scalar SingleCell_Standalone.gnb.cellularNic.rlcMux rlcPduDelayDl:mean -nan
scalar SingleCell_Standalone.gnb.cellularNic.rlcMux rlcThroughputUl:simu5g_rateavg -nan
scalar SingleCell_Standalone.gnb.cellularNic.rlcMux rlcThroughputDl:simu5g_rateavg -nan
scalar SingleCell_Standalone.gnb.cellularNic.rlcMux rlcDelayUl:mean -nan
scalar SingleCell_Standalone.gnb.cellularNic.rlcMux rlcDelayDl:mean -nan
scalar SingleCell_Standalone.gnb.cellularNic.rlcMux sentPacketToLowerLayer:count 104601
scalar SingleCell_Standalone.gnb.cellularNic.rlcMux sentPacketToLowerLayer:sum(packetBytes) 101603249
scalar SingleCell_Standalone.gnb.cellularNic.rlcMux receivedPacketFromLowerLayer:count 0
scalar SingleCell_Standalone.gnb.cellularNic.rlcMux receivedPacketFromLowerLayer:sum(packetBytes) 0
scalar SingleCell_Standalone.gnb.cellularNic.mac avgServedBlocksUl:mean 0
scalar SingleCell_Standalone.gnb.cellularNic.mac avgServedBlocksDl:mean 7.5739000000000001
scalar SingleCell_Standalone.gnb.cellularNic.mac macCellPacketLossD2D:mean -nan
scalar SingleCell_Standalone.gnb.cellularNic.mac macCellThroughputD2D:simu5g_rateavg -nan
scalar SingleCell_Standalone.gnb.cellularNic.mac harqTxAttemptsUl:mean -nan
scalar SingleCell_Standalone.gnb.cellularNic.mac harqTxAttemptsDl:mean -nan
scalar SingleCell_Standalone.gnb.cellularNic.mac harqErrorRate_4th_Ul:mean -nan
scalar SingleCell_Standalone.gnb.cellularNic.mac harqErrorRate_4th_Dl:mean -nan
scalar SingleCell_Standalone.gnb.cellularNic.mac harqErrorRate_3rd_Ul:mean -nan
scalar SingleCell_Standalone.gnb.cellularNic.mac harqErrorRate_3rd_Dl:mean -nan
scalar SingleCell_Standalone.gnb.cellularNic.mac harqErrorRate_2nd_Ul:mean -nan
scalar SingleCell_Standalone.gnb.cellularNic.mac harqErrorRate_2nd_Dl:mean -nan
scalar SingleCell_Standalone.gnb.cellularNic.mac harqErrorRate_1st_Ul:mean -nan
scalar SingleCell_Standalone.gnb.cellularNic.mac harqErrorRate_1st_Dl:mean -nan
scalar SingleCell_Standalone.gnb.cellularNic.mac harqErrorRateUl:mean -nan
scalar SingleCell_Standalone.gnb.cellularNic.mac harqErrorRateDl:mean -nan
scalar SingleCell_Standalone.gnb.cellularNic.mac macCellPacketLossUl:mean -nan
scalar SingleCell_Standalone.gnb.cellularNic.mac macCellPacketLossDl:mean 0
scalar SingleCell_Standalone.gnb.cellularNic.mac macPacketLossUl:mean -nan
scalar SingleCell_Standalone.gnb.cellularNic.mac macPacketLossDl:mean -nan
scalar SingleCell_Standalone.gnb.cellularNic.mac macThroughputUl:simu5g_rateavg -nan
scalar SingleCell_Standalone.gnb.cellularNic.mac macThroughputDl:simu5g_rateavg -nan
scalar SingleCell_Standalone.gnb.cellularNic.mac macDelayUl:mean -nan
scalar SingleCell_Standalone.gnb.cellularNic.mac macDelayDl:mean -nan
scalar SingleCell_Standalone.gnb.cellularNic.mac macCellThroughputUl:simu5g_rateavg -nan
scalar SingleCell_Standalone.gnb.cellularNic.mac macCellThroughputDl:simu5g_rateavg 1018496.3990003827
scalar SingleCell_Standalone.gnb.cellularNic.mac sentPacketToLowerLayer:count 80493
scalar SingleCell_Standalone.gnb.cellularNic.mac sentPacketToLowerLayer:sum(packetBytes) 51630571
scalar SingleCell_Standalone.gnb.cellularNic.mac sentPacketToUpperLayer:count 79601
scalar SingleCell_Standalone.gnb.cellularNic.mac sentPacketToUpperLayer:sum(packetBytes) 79601
scalar SingleCell_Standalone.gnb.cellularNic.mac receivedPacketFromLowerLayer:count 180481
scalar SingleCell_Standalone.gnb.cellularNic.mac receivedPacketFromLowerLayer:sum(packetBytes) 180481
scalar SingleCell_Standalone.gnb.cellularNic.mac receivedPacketFromUpperLayer:count 104601
scalar SingleCell_Standalone.gnb.cellularNic.mac receivedPacketFromUpperLayer:sum(packetBytes) 101603249
scalar SingleCell_Standalone.gnb.cellularNic.mac macBufferOverFlowD2D:mean -nan
scalar SingleCell_Standalone.gnb.cellularNic.mac macBufferOverFlowUl:mean -nan
scalar SingleCell_Standalone.gnb.cellularNic.mac macBufferOverFlowDl:mean -nan
scalar SingleCell_Standalone.gnb.cellularNic.channelModel[0] measuredSinrUl:mean -nan
scalar SingleCell_Standalone.gnb.cellularNic.channelModel[0] measuredSinrDl:mean -nan
scalar SingleCell_Standalone.gnb.cellularNic.channelModel[0] rcvdSinrD2D:mean -nan
scalar SingleCell_Standalone.gnb.cellularNic.channelModel[0] rcvdSinrUl:mean -nan
scalar SingleCell_Standalone.gnb.cellularNic.channelModel[0] rcvdSinrDl:mean -nan
scalar SingleCell_Standalone.gnb.cellularNic.channelModel[1] measuredSinrUl:mean -nan
scalar SingleCell_Standalone.gnb.cellularNic.channelModel[1] measuredSinrDl:mean -nan
scalar SingleCell_Standalone.gnb.cellularNic.channelModel[1] rcvdSinrD2D:mean -nan
scalar SingleCell_Standalone.gnb.cellularNic.channelModel[1] rcvdSinrUl:mean -nan
scalar SingleCell_Standalone.gnb.cellularNic.channelModel[1] rcvdSinrDl:mean -nan
scalar SingleCell_Standalone.gnb.cellularNic packetDropInterfaceDown:count 0
scalar SingleCell_Standalone.gnb.cellularNic packetDropInterfaceDown:sum(packetBytes) 0
scalar SingleCell_Standalone.gnb.cellularNic packetDropNoCarrier:count 0
scalar SingleCell_Standalone.gnb.cellularNic packetDropNoCarrier:sum(packetBytes) 0
scalar SingleCell_Standalone.gnb.pppIf.queue queueLength:last 0
scalar SingleCell_Standalone.gnb.pppIf.queue queueLength:max 0
scalar SingleCell_Standalone.gnb.pppIf.queue queueLength:timeavg 0
scalar SingleCell_Standalone.gnb.pppIf.queue queueBitLength:last 0
scalar SingleCell_Standalone.gnb.pppIf.queue queueBitLength:max 0
scalar SingleCell_Standalone.gnb.pppIf.queue queueBitLength:timeavg 0
scalar SingleCell_Standalone.gnb.pppIf.queue outgoingPackets:count 0
scalar SingleCell_Standalone.gnb.pppIf.queue outgoingPacketLengths:sum 0
scalar SingleCell_Standalone.gnb.pppIf.queue incomingPackets:count 0
scalar SingleCell_Standalone.gnb.pppIf.queue incomingPacketLengths:sum 0
scalar SingleCell_Standalone.gnb.pppIf.queue droppedPacketsQueueOverflow:count 0
scalar SingleCell_Standalone.gnb.pppIf.queue droppedPacketLengthsQueueOverflow:sum 0
scalar SingleCell_Standalone.gnb.pppIf.ppp transmissionState:timeavg 0
scalar SingleCell_Standalone.gnb.pppIf.ppp rxPkOk:count 25000
scalar SingleCell_Standalone.gnb.pppIf.ppp rxPkOk:sum(packetBytes) 51775000
scalar SingleCell_Standalone.gnb.pppIf.ppp txPk:count 0
scalar SingleCell_Standalone.gnb.pppIf.ppp txPk:sum(packetBytes) 0
scalar SingleCell_Standalone.gnb.pppIf.ppp rcvdPkFromHl:count 0
scalar SingleCell_Standalone.gnb.pppIf.ppp rcvdPkFromHl:sum(packetBytes) 0
scalar SingleCell_Standalone.gnb.pppIf.ppp passedUpPk:count 25000
scalar SingleCell_Standalone.gnb.pppIf.ppp passedUpPk:sum(packetBytes) 51600000
scalar SingleCell_Standalone.gnb.pppIf.ppp packetDropIncorrectlyReceived:count 0
scalar SingleCell_Standalone.gnb.pppIf.ppp packetDropIncorrectlyReceived:sum(packetBytes) 0
scalar SingleCell_Standalone.gnb.pppIf.ppp packetDropInterfaceDown:count 0
scalar SingleCell_Standalone.gnb.pppIf.ppp packetDropInterfaceDown:sum(packetBytes) 0
scalar SingleCell_Standalone.gnb.pppIf packetDropInterfaceDown:count 0
scalar SingleCell_Standalone.gnb.pppIf packetDropInterfaceDown:sum(packetBytes) 0
scalar SingleCell_Standalone.gnb.pppIf packetDropNoCarrier:count 0
scalar SingleCell_Standalone.gnb.pppIf packetDropNoCarrier:sum(packetBytes) 0
scalar SingleCell_Standalone.gnb.pppMEHostIf.queue queueLength:last 0
scalar SingleCell_Standalone.gnb.pppMEHostIf.queue queueLength:max 0
scalar SingleCell_Standalone.gnb.pppMEHostIf.queue queueLength:timeavg 0
scalar SingleCell_Standalone.gnb.pppMEHostIf.queue queueBitLength:last 0
scalar SingleCell_Standalone.gnb.pppMEHostIf.queue queueBitLength:max 0
scalar SingleCell_Standalone.gnb.pppMEHostIf.queue queueBitLength:timeavg 0
scalar SingleCell_Standalone.gnb.pppMEHostIf.queue outgoingPackets:count 0
scalar SingleCell_Standalone.gnb.pppMEHostIf.queue outgoingPacketLengths:sum 0
scalar SingleCell_Standalone.gnb.pppMEHostIf.queue incomingPackets:count 0
scalar SingleCell_Standalone.gnb.pppMEHostIf.queue incomingPacketLengths:sum 0
scalar SingleCell_Standalone.gnb.pppMEHostIf.queue droppedPacketsQueueOverflow:count 0
scalar SingleCell_Standalone.gnb.pppMEHostIf.queue droppedPacketLengthsQueueOverflow:sum 0
scalar SingleCell_Standalone.gnb.pppMEHostIf.ppp transmissionState:timeavg 0
scalar SingleCell_Standalone.gnb.pppMEHostIf.ppp rxPkOk:count 0
scalar SingleCell_Standalone.gnb.pppMEHostIf.ppp rxPkOk:sum(packetBytes) 0
scalar SingleCell_Standalone.gnb.pppMEHostIf.ppp txPk:count 0
scalar SingleCell_Standalone.gnb.pppMEHostIf.ppp txPk:sum(packetBytes) 0
scalar SingleCell_Standalone.gnb.pppMEHostIf.ppp rcvdPkFromHl:count 0
scalar SingleCell_Standalone.gnb.pppMEHostIf.ppp rcvdPkFromHl:sum(packetBytes) 0
scalar SingleCell_Standalone.gnb.pppMEHostIf.ppp passedUpPk:count 0
scalar SingleCell_Standalone.gnb.pppMEHostIf.ppp passedUpPk:sum(packetBytes) 0
scalar SingleCell_Standalone.gnb.pppMEHostIf.ppp packetDropIncorrectlyReceived:count 0
scalar SingleCell_Standalone.gnb.pppMEHostIf.ppp packetDropIncorrectlyReceived:sum(packetBytes) 0
scalar SingleCell_Standalone.gnb.pppMEHostIf.ppp packetDropInterfaceDown:count 0
scalar SingleCell_Standalone.gnb.pppMEHostIf.ppp packetDropInterfaceDown:sum(packetBytes) 0
scalar SingleCell_Standalone.gnb.pppMEHostIf packetDropInterfaceDown:count 0
scalar SingleCell_Standalone.gnb.pppMEHostIf packetDropInterfaceDown:sum(packetBytes) 0
scalar SingleCell_Standalone.gnb.pppMEHostIf packetDropNoCarrier:count 0
scalar SingleCell_Standalone.gnb.pppMEHostIf packetDropNoCarrier:sum(packetBytes) 0
scalar SingleCell_Standalone.gnb.ipv4.ip packetDropAddressResolutionFailed:count 0
scalar SingleCell_Standalone.gnb.ipv4.ip packetDropAddressResolutionFailed:sum(packetBytes) 0
scalar SingleCell_Standalone.gnb.ipv4.ip packetDropHopLimitReached:count 0
scalar SingleCell_Standalone.gnb.ipv4.ip packetDropHopLimitReached:sum(packetBytes) 0
scalar SingleCell_Standalone.gnb.ipv4.ip packetDropForwardingDisabled:count 0
scalar SingleCell_Standalone.gnb.ipv4.ip packetDropForwardingDisabled:sum(packetBytes) 0
scalar SingleCell_Standalone.gnb.ipv4.ip packetDropNoInterfaceFound:count 0
scalar SingleCell_Standalone.gnb.ipv4.ip packetDropNoInterfaceFound:sum(packetBytes) 0
scalar SingleCell_Standalone.gnb.ipv4.ip packetDropNoRouteFound:count 0
scalar SingleCell_Standalone.gnb.ipv4.ip packetDropNoRouteFound:sum(packetBytes) 0
scalar SingleCell_Standalone.gnb.ipv4.ip packetDropUndefined:count 0
scalar SingleCell_Standalone.gnb.ipv4.ip packetDropUndefined:sum(packetBytes) 0
scalar SingleCell_Standalone.gnb.ipv4.arp arpResolutionFailed:count 0
scalar SingleCell_Standalone.gnb.ipv4.arp arpResolutionCompleted:count 0
scalar SingleCell_Standalone.gnb.ipv4.arp arpResolutionInitiated:count 0
scalar SingleCell_Standalone.gnb.ipv4.arp arpReplySent:count 0
scalar SingleCell_Standalone.gnb.ipv4.arp arpReplySent:sum(packetBytes) 0
scalar SingleCell_Standalone.gnb.ipv4.arp arpRequestSent:count 0
scalar SingleCell_Standalone.gnb.ipv4.arp arpRequestSent:sum(packetBytes) 0
scalar SingleCell_Standalone.gnb.udp packetReceived:count 25000
scalar SingleCell_Standalone.gnb.udp packetReceived:sum(packetBytes) 51100000
scalar SingleCell_Standalone.gnb.udp packetSent:count 0
scalar SingleCell_Standalone.gnb.udp packetSent:sum(packetBytes) 0
scalar SingleCell_Standalone.gnb.udp passedUpPk:count 25000
scalar SingleCell_Standalone.gnb.udp droppedPkWrongPort:count 0
scalar SingleCell_Standalone.gnb.udp droppedPkBadChecksum:count 0
scalar SingleCell_Standalone.ue[0].lo[0].lo rcvdPkFromHl:count 0
scalar SingleCell_Standalone.ue[0].lo[0].lo rcvdPkFromHl:sum(packetBytes) 0
scalar SingleCell_Standalone.ue[0].lo[0].lo passedUpPk:count 0
scalar SingleCell_Standalone.ue[0].lo[0].lo passedUpPk:sum(packetBytes) 0
scalar SingleCell_Standalone.ue[0].lo[0] packetDropInterfaceDown:count 0
scalar SingleCell_Standalone.ue[0].lo[0] packetDropInterfaceDown:sum(packetBytes) 0
scalar SingleCell_Standalone.ue[0].lo[0] packetDropNoCarrier:count 0
scalar SingleCell_Standalone.ue[0].lo[0] packetDropNoCarrier:sum(packetBytes) 0
scalar SingleCell_Standalone.ue[0].cellularNic.rlcMux rlcCellThroughputD2D:simu5g_rateavg -nan
scalar SingleCell_Standalone.ue[0].cellularNic.rlcMux rlcPduThroughputD2D:simu5g_rateavg -nan
scalar SingleCell_Standalone.ue[0].cellularNic.rlcMux rlcPduDelayD2D:mean -nan
scalar SingleCell_Standalone.ue[0].cellularNic.rlcMux rlcThroughputD2D:simu5g_rateavg -nan
scalar SingleCell_Standalone.ue[0].cellularNic.rlcMux rlcDelayD2D:mean -nan
scalar SingleCell_Standalone.ue[0].cellularNic.rlcMux rlcCellThroughputUl:simu5g_rateavg -nan
scalar SingleCell_Standalone.ue[0].cellularNic.rlcMux rlcCellThroughputDl:simu5g_rateavg -nan
scalar SingleCell_Standalone.ue[0].cellularNic.rlcMux rlcPduThroughputUl:simu5g_rateavg -nan
scalar SingleCell_Standalone.ue[0].cellularNic.rlcMux rlcPduThroughputDl:simu5g_rateavg -nan
scalar SingleCell_Standalone.ue[0].cellularNic.rlcMux rlcPduDelayUl:mean -nan
scalar SingleCell_Standalone.ue[0].cellularNic.rlcMux rlcPduDelayDl:mean -nan
scalar SingleCell_Standalone.ue[0].cellularNic.rlcMux rlcThroughputUl:simu5g_rateavg -nan
scalar SingleCell_Standalone.ue[0].cellularNic.rlcMux rlcThroughputDl:simu5g_rateavg -nan
scalar SingleCell_Standalone.ue[0].cellularNic.rlcMux rlcDelayUl:mean -nan
scalar SingleCell_Standalone.ue[0].cellularNic.rlcMux rlcDelayDl:mean -nan
scalar SingleCell_Standalone.ue[0].cellularNic.rlcMux sentPacketToLowerLayer:count 0
scalar SingleCell_Standalone.ue[0].cellularNic.rlcMux sentPacketToLowerLayer:sum(packetBytes) 0
scalar SingleCell_Standalone.ue[0].cellularNic.rlcMux receivedPacketFromLowerLayer:count 0
scalar SingleCell_Standalone.ue[0].cellularNic.rlcMux receivedPacketFromLowerLayer:sum(packetBytes) 0
scalar SingleCell_Standalone.ue[0].cellularNic.mac harqErrorRate_4th_D2D:mean -nan
scalar SingleCell_Standalone.ue[0].cellularNic.mac harqErrorRate_3rd_D2D:mean -nan
scalar SingleCell_Standalone.ue[0].cellularNic.mac harqErrorRate_2nd_D2D:mean -nan
scalar SingleCell_Standalone.ue[0].cellularNic.mac harqErrorRate_1st_D2D:mean -nan
scalar SingleCell_Standalone.ue[0].cellularNic.mac harqErrorRateD2D:mean -nan
scalar SingleCell_Standalone.ue[0].cellularNic.mac macPacketLossD2D:mean -nan
scalar SingleCell_Standalone.ue[0].cellularNic.mac macDelayD2D:mean -nan
scalar SingleCell_Standalone.ue[0].cellularNic.mac macThroughputD2D:simu5g_rateavg -nan
scalar SingleCell_Standalone.ue[0].cellularNic.mac harqTxAttemptsUl:mean -nan
scalar SingleCell_Standalone.ue[0].cellularNic.mac harqTxAttemptsDl:mean -nan
scalar SingleCell_Standalone.ue[0].cellularNic.mac harqErrorRate_4th_Ul:mean -nan
scalar SingleCell_Standalone.ue[0].cellularNic.mac harqErrorRate_4th_Dl:mean -nan
scalar SingleCell_Standalone.ue[0].cellularNic.mac harqErrorRate_3rd_Ul:mean -nan
scalar SingleCell_Standalone.ue[0].cellularNic.mac harqErrorRate_3rd_Dl:mean -nan
scalar SingleCell_Standalone.ue[0].cellularNic.mac harqErrorRate_2nd_Ul:mean -nan
scalar SingleCell_Standalone.ue[0].cellularNic.mac harqErrorRate_2nd_Dl:mean -nan
scalar SingleCell_Standalone.ue[0].cellularNic.mac harqErrorRate_1st_Ul:mean -nan
scalar SingleCell_Standalone.ue[0].cellularNic.mac harqErrorRate_1st_Dl:mean -nan
scalar SingleCell_Standalone.ue[0].cellularNic.mac harqErrorRateUl:mean -nan
scalar SingleCell_Standalone.ue[0].cellularNic.mac harqErrorRateDl:mean -nan
scalar SingleCell_Standalone.ue[0].cellularNic.mac macCellPacketLossUl:mean -nan
scalar SingleCell_Standalone.ue[0].cellularNic.mac macCellPacketLossDl:mean -nan
scalar SingleCell_Standalone.ue[0].cellularNic.mac macPacketLossUl:mean -nan
scalar SingleCell_Standalone.ue[0].cellularNic.mac macPacketLossDl:mean -nan
scalar SingleCell_Standalone.ue[0].cellularNic.mac macThroughputUl:simu5g_rateavg -nan
scalar SingleCell_Standalone.ue[0].cellularNic.mac macThroughputDl:simu5g_rateavg -nan
scalar SingleCell_Standalone.ue[0].cellularNic.mac macDelayUl:mean -nan
scalar SingleCell_Standalone.ue[0].cellularNic.mac macDelayDl:mean -nan
scalar SingleCell_Standalone.ue[0].cellularNic.mac macCellThroughputUl:simu5g_rateavg -nan
scalar SingleCell_Standalone.ue[0].cellularNic.mac macCellThroughputDl:simu5g_rateavg -nan
scalar SingleCell_Standalone.ue[0].cellularNic.mac rcvdD2DModeSwitchNotification:count 0
scalar SingleCell_Standalone.ue[0].cellularNic.mac sentPacketToLowerLayer:count 0
scalar SingleCell_Standalone.ue[0].cellularNic.mac sentPacketToLowerLayer:sum(packetBytes) 0
scalar SingleCell_Standalone.ue[0].cellularNic.mac sentPacketToUpperLayer:count 0
scalar SingleCell_Standalone.ue[0].cellularNic.mac sentPacketToUpperLayer:sum(packetBytes) 0
scalar SingleCell_Standalone.ue[0].cellularNic.mac receivedPacketFromLowerLayer:count 0
scalar SingleCell_Standalone.ue[0].cellularNic.mac receivedPacketFromLowerLayer:sum(packetBytes) 0
scalar SingleCell_Standalone.ue[0].cellularNic.mac receivedPacketFromUpperLayer:count 0
scalar SingleCell_Standalone.ue[0].cellularNic.mac receivedPacketFromUpperLayer:sum(packetBytes) 0
scalar SingleCell_Standalone.ue[0].cellularNic.mac macBufferOverFlowD2D:mean -nan
scalar SingleCell_Standalone.ue[0].cellularNic.mac macBufferOverFlowUl:mean -nan
scalar SingleCell_Standalone.ue[0].cellularNic.mac macBufferOverFlowDl:mean -nan
scalar SingleCell_Standalone.ue[0].cellularNic.phy distance:mean -nan
scalar SingleCell_Standalone.ue[0].cellularNic.phy averageCqiD2D:mean -nan
scalar SingleCell_Standalone.ue[0].cellularNic.phy averageCqiUl:mean -nan
scalar SingleCell_Standalone.ue[0].cellularNic.phy averageCqiUl:count 0
scalar SingleCell_Standalone.ue[0].cellularNic.phy averageCqiDl:mean -nan
scalar SingleCell_Standalone.ue[0].cellularNic.phy averageCqiDl:count 0
scalar SingleCell_Standalone.ue[0].cellularNic.channelModel[0] measuredSinrUl:mean -nan
scalar SingleCell_Standalone.ue[0].cellularNic.channelModel[0] measuredSinrDl:mean -nan
scalar SingleCell_Standalone.ue[0].cellularNic.channelModel[0] rcvdSinrD2D:mean -nan
scalar SingleCell_Standalone.ue[0].cellularNic.channelModel[0] rcvdSinrUl:mean -nan
scalar SingleCell_Standalone.ue[0].cellularNic.channelModel[0] rcvdSinrDl:mean -nan
scalar SingleCell_Standalone.ue[0].cellularNic.nrRlcMux rlcCellThroughputD2D:simu5g_rateavg -nan
scalar SingleCell_Standalone.ue[0].cellularNic.nrRlcMux rlcPduThroughputD2D:simu5g_rateavg -nan
scalar SingleCell_Standalone.ue[0].cellularNic.nrRlcMux rlcPduDelayD2D:mean -nan
scalar SingleCell_Standalone.ue[0].cellularNic.nrRlcMux rlcThroughputD2D:simu5g_rateavg -nan
scalar SingleCell_Standalone.ue[0].cellularNic.nrRlcMux rlcDelayD2D:mean -nan
scalar SingleCell_Standalone.ue[0].cellularNic.nrRlcMux rlcCellThroughputUl:simu5g_rateavg -nan
scalar SingleCell_Standalone.ue[0].cellularNic.nrRlcMux rlcCellThroughputDl:simu5g_rateavg -nan
scalar SingleCell_Standalone.ue[0].cellularNic.nrRlcMux rlcPduThroughputUl:simu5g_rateavg -nan
scalar SingleCell_Standalone.ue[0].cellularNic.nrRlcMux rlcPduThroughputDl:simu5g_rateavg 0
scalar SingleCell_Standalone.ue[0].cellularNic.nrRlcMux rlcPduDelayUl:mean -nan
scalar SingleCell_Standalone.ue[0].cellularNic.nrRlcMux rlcPduDelayDl:mean 0.0040224545102598682
scalar SingleCell_Standalone.ue[0].cellularNic.nrRlcMux rlcThroughputUl:simu5g_rateavg -nan
scalar SingleCell_Standalone.ue[0].cellularNic.nrRlcMux rlcThroughputDl:simu5g_rateavg 101339.99460087338
scalar SingleCell_Standalone.ue[0].cellularNic.nrRlcMux rlcDelayUl:mean -nan
scalar SingleCell_Standalone.ue[0].cellularNic.nrRlcMux rlcDelayDl:mean 0.0078172213282679988
scalar SingleCell_Standalone.ue[0].cellularNic.nrRlcMux sentPacketToLowerLayer:count 0
scalar SingleCell_Standalone.ue[0].cellularNic.nrRlcMux sentPacketToLowerLayer:sum(packetBytes) 0
scalar SingleCell_Standalone.ue[0].cellularNic.nrRlcMux receivedPacketFromLowerLayer:count 7749
scalar SingleCell_Standalone.ue[0].cellularNic.nrRlcMux receivedPacketFromLowerLayer:sum(packetBytes) 5085969
scalar SingleCell_Standalone.ue[0].cellularNic.nrMac harqErrorRate_4th_D2D:mean -nan
scalar SingleCell_Standalone.ue[0].cellularNic.nrMac harqErrorRate_3rd_D2D:mean -nan
scalar SingleCell_Standalone.ue[0].cellularNic.nrMac harqErrorRate_2nd_D2D:mean -nan
scalar SingleCell_Standalone.ue[0].cellularNic.nrMac harqErrorRate_1st_D2D:mean -nan
scalar SingleCell_Standalone.ue[0].cellularNic.nrMac harqErrorRateD2D:mean -nan
scalar SingleCell_Standalone.ue[0].cellularNic.nrMac macPacketLossD2D:mean -nan
scalar SingleCell_Standalone.ue[0].cellularNic.nrMac macDelayD2D:mean -nan
scalar SingleCell_Standalone.ue[0].cellularNic.nrMac macThroughputD2D:simu5g_rateavg -nan
scalar SingleCell_Standalone.ue[0].cellularNic.nrMac harqTxAttemptsUl:mean -nan
scalar SingleCell_Standalone.ue[0].cellularNic.nrMac harqTxAttemptsDl:mean 1.0036133694670279
scalar SingleCell_Standalone.ue[0].cellularNic.nrMac harqErrorRate_4th_Ul:mean -nan
scalar SingleCell_Standalone.ue[0].cellularNic.nrMac harqErrorRate_4th_Dl:mean -nan
scalar SingleCell_Standalone.ue[0].cellularNic.nrMac harqErrorRate_3rd_Ul:mean -nan
scalar SingleCell_Standalone.ue[0].cellularNic.nrMac harqErrorRate_3rd_Dl:mean -nan
scalar SingleCell_Standalone.ue[0].cellularNic.nrMac harqErrorRate_2nd_Ul:mean -nan
scalar SingleCell_Standalone.ue[0].cellularNic.nrMac harqErrorRate_2nd_Dl:mean 0
scalar SingleCell_Standalone.ue[0].cellularNic.nrMac harqErrorRate_1st_Ul:mean -nan
scalar SingleCell_Standalone.ue[0].cellularNic.nrMac harqErrorRate_1st_Dl:mean 0.0036133694670280035
scalar SingleCell_Standalone.ue[0].cellularNic.nrMac harqErrorRateUl:mean -nan
scalar SingleCell_Standalone.ue[0].cellularNic.nrMac harqErrorRateDl:mean 0.0036003600360036002
scalar SingleCell_Standalone.ue[0].cellularNic.nrMac macCellPacketLossUl:mean -nan
scalar SingleCell_Standalone.ue[0].cellularNic.nrMac macCellPacketLossDl:mean -nan
scalar SingleCell_Standalone.ue[0].cellularNic.nrMac macPacketLossUl:mean -nan
scalar SingleCell_Standalone.ue[0].cellularNic.nrMac macPacketLossDl:mean 0
scalar SingleCell_Standalone.ue[0].cellularNic.nrMac macThroughputUl:simu5g_rateavg -nan
scalar SingleCell_Standalone.ue[0].cellularNic.nrMac macThroughputDl:simu5g_rateavg 51152.024135083608
scalar SingleCell_Standalone.ue[0].cellularNic.nrMac macDelayUl:mean -nan
scalar SingleCell_Standalone.ue[0].cellularNic.nrMac macDelayDl:mean 0.0040224545102598682
scalar SingleCell_Standalone.ue[0].cellularNic.nrMac macCellThroughputUl:simu5g_rateavg -nan
scalar SingleCell_Standalone.ue[0].cellularNic.nrMac macCellThroughputDl:simu5g_rateavg -nan
scalar SingleCell_Standalone.ue[0].cellularNic.nrMac rcvdD2DModeSwitchNotification:count 0
scalar SingleCell_Standalone.ue[0].cellularNic.nrMac sentPacketToLowerLayer:count 7777
scalar SingleCell_Standalone.ue[0].cellularNic.nrMac sentPacketToLowerLayer:sum(packetBytes) 7777
scalar SingleCell_Standalone.ue[0].cellularNic.nrMac sentPacketToUpperLayer:count 7749
scalar SingleCell_Standalone.ue[0].cellularNic.nrMac sentPacketToUpperLayer:sum(packetBytes) 5085969
scalar SingleCell_Standalone.ue[0].cellularNic.nrMac receivedPacketFromLowerLayer:count 7778
scalar SingleCell_Standalone.ue[0].cellularNic.nrMac receivedPacketFromLowerLayer:sum(packetBytes) 5124722
scalar SingleCell_Standalone.ue[0].cellularNic.nrMac receivedPacketFromUpperLayer:count 0
scalar SingleCell_Standalone.ue[0].cellularNic.nrMac receivedPacketFromUpperLayer:sum(packetBytes) 0
scalar SingleCell_Standalone.ue[0].cellularNic.nrMac macBufferOverFlowD2D:mean -nan
scalar SingleCell_Standalone.ue[0].cellularNic.nrMac macBufferOverFlowUl:mean -nan
scalar SingleCell_Standalone.ue[0].cellularNic.nrMac macBufferOverFlowDl:mean -nan
scalar SingleCell_Standalone.ue[0].cellularNic.nrPhy distance:mean 56.321680982900219
scalar SingleCell_Standalone.ue[0].cellularNic.nrPhy averageCqiD2D:mean -nan
scalar SingleCell_Standalone.ue[0].cellularNic.nrPhy averageCqiUl:mean -nan
scalar SingleCell_Standalone.ue[0].cellularNic.nrPhy averageCqiUl:count 0
scalar SingleCell_Standalone.ue[0].cellularNic.nrPhy averageCqiDl:mean 14.996528670609411
scalar SingleCell_Standalone.ue[0].cellularNic.nrPhy averageCqiDl:count 7778
scalar SingleCell_Standalone.ue[0].cellularNic.nrChannelModel[0] measuredSinrUl:mean 56.431422621610992
scalar SingleCell_Standalone.ue[0].cellularNic.nrChannelModel[0] measuredSinrDl:mean 65.948385386978217
scalar SingleCell_Standalone.ue[0].cellularNic.nrChannelModel[0] rcvdSinrD2D:mean -nan
scalar SingleCell_Standalone.ue[0].cellularNic.nrChannelModel[0] rcvdSinrUl:mean -nan
scalar SingleCell_Standalone.ue[0].cellularNic.nrChannelModel[0] rcvdSinrDl:mean 65.32110747850578
scalar SingleCell_Standalone.ue[0].cellularNic.nrChannelModel[1] measuredSinrUl:mean 39.300101637766844
scalar SingleCell_Standalone.ue[0].cellularNic.nrChannelModel[1] measuredSinrDl:mean 57.388090519099656
scalar SingleCell_Standalone.ue[0].cellularNic.nrChannelModel[1] rcvdSinrD2D:mean -nan
scalar SingleCell_Standalone.ue[0].cellularNic.nrChannelModel[1] rcvdSinrUl:mean -nan
scalar SingleCell_Standalone.ue[0].cellularNic.nrChannelModel[1] rcvdSinrDl:mean 57.709663588306448
scalar SingleCell_Standalone.ue[0].cellularNic packetDropInterfaceDown:count 0
scalar SingleCell_Standalone.ue[0].cellularNic packetDropInterfaceDown:sum(packetBytes) 0
scalar SingleCell_Standalone.ue[0].cellularNic packetDropNoCarrier:count 0
scalar SingleCell_Standalone.ue[0].cellularNic packetDropNoCarrier:sum(packetBytes) 0
scalar SingleCell_Standalone.ue[0].encap pauseSent:count 0
scalar SingleCell_Standalone.ue[0].encap pauseSent:sum 0
scalar SingleCell_Standalone.ue[0].encap decapPk:count 0
scalar SingleCell_Standalone.ue[0].encap decapPk:sum(packetBytes) 0
scalar SingleCell_Standalone.ue[0].encap encapPk:count 0
scalar SingleCell_Standalone.ue[0].encap encapPk:sum(packetBytes) 0
scalar SingleCell_Standalone.ue[0].ipv4.ip packetDropAddressResolutionFailed:count 0
scalar SingleCell_Standalone.ue[0].ipv4.ip packetDropAddressResolutionFailed:sum(packetBytes) 0
scalar SingleCell_Standalone.ue[0].ipv4.ip packetDropHopLimitReached:count 0
scalar SingleCell_Standalone.ue[0].ipv4.ip packetDropHopLimitReached:sum(packetBytes) 0
scalar SingleCell_Standalone.ue[0].ipv4.ip packetDropForwardingDisabled:count 0
scalar SingleCell_Standalone.ue[0].ipv4.ip packetDropForwardingDisabled:sum(packetBytes) 0
scalar SingleCell_Standalone.ue[0].ipv4.ip packetDropNoInterfaceFound:count 0
scalar SingleCell_Standalone.ue[0].ipv4.ip packetDropNoInterfaceFound:sum(packetBytes) 0
scalar SingleCell_Standalone.ue[0].ipv4.ip packetDropNoRouteFound:count 0
scalar SingleCell_Standalone.ue[0].ipv4.ip packetDropNoRouteFound:sum(packetBytes) 0
scalar SingleCell_Standalone.ue[0].ipv4.ip packetDropUndefined:count 0
scalar SingleCell_Standalone.ue[0].ipv4.ip packetDropUndefined:sum(packetBytes) 0
scalar SingleCell_Standalone.ue[0].ipv4.arp arpResolutionFailed:count 0
scalar SingleCell_Standalone.ue[0].ipv4.arp arpResolutionCompleted:count 0
scalar SingleCell_Standalone.ue[0].ipv4.arp arpResolutionInitiated:count 0
scalar SingleCell_Standalone.ue[0].ipv4.arp arpReplySent:count 0
scalar SingleCell_Standalone.ue[0].ipv4.arp arpReplySent:sum(packetBytes) 0
scalar SingleCell_Standalone.ue[0].ipv4.arp arpRequestSent:count 0
scalar SingleCell_Standalone.ue[0].ipv4.arp arpRequestSent:sum(packetBytes) 0
scalar SingleCell_Standalone.ue[0].udp packetReceived:count 2499
scalar SingleCell_Standalone.ue[0].udp packetReceived:sum(packetBytes) 5017992
scalar SingleCell_Standalone.ue[0].udp packetSent:count 0
scalar SingleCell_Standalone.ue[0].udp packetSent:sum(packetBytes) 0
scalar SingleCell_Standalone.ue[0].udp passedUpPk:count 2499
scalar SingleCell_Standalone.ue[0].udp droppedPkWrongPort:count 0
scalar SingleCell_Standalone.ue[0].udp droppedPkBadChecksum:count 0
scalar SingleCell_Standalone.ue[0].app[0] cbrReceivedBytes:mean 2000
scalar SingleCell_Standalone.ue[0].app[0] cbrReceivedBytes:sum 4998000
scalar SingleCell_Standalone.ue[0].app[0] cbrReceivedThroughput:simu5g_rateavg 99960
scalar SingleCell_Standalone.ue[0].app[0] cbrJitter:mean -nan
scalar SingleCell_Standalone.ue[0].app[0] cbrFrameDelay:mean 0.0078239909282681128
scalar SingleCell_Standalone.ue[0].app[0] cbrFrameLoss:mean 0
scalar SingleCell_Standalone.ue[1].lo[0].lo rcvdPkFromHl:count 0
scalar SingleCell_Standalone.ue[1].lo[0].lo rcvdPkFromHl:sum(packetBytes) 0
scalar SingleCell_Standalone.ue[1].lo[0].lo passedUpPk:count 0
scalar SingleCell_Standalone.ue[1].lo[0].lo passedUpPk:sum(packetBytes) 0
scalar SingleCell_Standalone.ue[1].lo[0] packetDropInterfaceDown:count 0
scalar SingleCell_Standalone.ue[1].lo[0] packetDropInterfaceDown:sum(packetBytes) 0
scalar SingleCell_Standalone.ue[1].lo[0] packetDropNoCarrier:count 0
scalar SingleCell_Standalone.ue[1].lo[0] packetDropNoCarrier:sum(packetBytes) 0
scalar SingleCell_Standalone.ue[1].cellularNic.rlcMux rlcCellThroughputD2D:simu5g_rateavg -nan
scalar SingleCell_Standalone.ue[1].cellularNic.rlcMux rlcPduThroughputD2D:simu5g_rateavg -nan
scalar SingleCell_Standalone.ue[1].cellularNic.rlcMux rlcPduDelayD2D:mean -nan
scalar SingleCell_Standalone.ue[1].cellularNic.rlcMux rlcThroughputD2D:simu5g_rateavg -nan
scalar SingleCell_Standalone.ue[1].cellularNic.rlcMux rlcDelayD2D:mean -nan
scalar SingleCell_Standalone.ue[1].cellularNic.rlcMux rlcCellThroughputUl:simu5g_rateavg -nan
scalar SingleCell_Standalone.ue[1].cellularNic.rlcMux rlcCellThroughputDl:simu5g_rateavg -nan
scalar SingleCell_Standalone.ue[1].cellularNic.rlcMux rlcPduThroughputUl:simu5g_rateavg -nan
scalar SingleCell_Standalone.ue[1].cellularNic.rlcMux rlcPduThroughputDl:simu5g_rateavg -nan
scalar SingleCell_Standalone.ue[1].cellularNic.rlcMux rlcPduDelayUl:mean -nan
scalar SingleCell_Standalone.ue[1].cellularNic.rlcMux rlcPduDelayDl:mean -nan
scalar SingleCell_Standalone.ue[1].cellularNic.rlcMux rlcThroughputUl:simu5g_rateavg -nan
scalar SingleCell_Standalone.ue[1].cellularNic.rlcMux rlcThroughputDl:simu5g_rateavg -nan
scalar SingleCell_Standalone.ue[1].cellularNic.rlcMux rlcDelayUl:mean -nan
scalar SingleCell_Standalone.ue[1].cellularNic.rlcMux rlcDelayDl:mean -nan
scalar SingleCell_Standalone.ue[1].cellularNic.rlcMux sentPacketToLowerLayer:count 0
scalar SingleCell_Standalone.ue[1].cellularNic.rlcMux sentPacketToLowerLayer:sum(packetBytes) 0
scalar SingleCell_Standalone.ue[1].cellularNic.rlcMux receivedPacketFromLowerLayer:count 0
scalar SingleCell_Standalone.ue[1].cellularNic.rlcMux receivedPacketFromLowerLayer:sum(packetBytes) 0
scalar SingleCell_Standalone.ue[1].cellularNic.mac harqErrorRate_4th_D2D:mean -nan
scalar SingleCell_Standalone.ue[1].cellularNic.mac harqErrorRate_3rd_D2D:mean -nan
scalar SingleCell_Standalone.ue[1].cellularNic.mac harqErrorRate_2nd_D2D:mean -nan
scalar SingleCell_Standalone.ue[1].cellularNic.mac harqErrorRate_1st_D2D:mean -nan
scalar SingleCell_Standalone.ue[1].cellularNic.mac harqErrorRateD2D:mean -nan
scalar SingleCell_Standalone.ue[1].cellularNic.mac macPacketLossD2D:mean -nan
scalar SingleCell_Standalone.ue[1].cellularNic.mac macDelayD2D:mean -nan
scalar SingleCell_Standalone.ue[1].cellularNic.mac macThroughputD2D:simu5g_rateavg -nan
scalar SingleCell_Standalone.ue[1].cellularNic.mac harqTxAttemptsUl:mean -nan
scalar SingleCell_Standalone.ue[1].cellularNic.mac harqTxAttemptsDl:mean -nan
scalar SingleCell_Standalone.ue[1].cellularNic.mac harqErrorRate_4th_Ul:mean -nan
scalar SingleCell_Standalone.ue[1].cellularNic.mac harqErrorRate_4th_Dl:mean -nan
scalar SingleCell_Standalone.ue[1].cellularNic.mac harqErrorRate_3rd_Ul:mean -nan
scalar SingleCell_Standalone.ue[1].cellularNic.mac harqErrorRate_3rd_Dl:mean -nan
scalar SingleCell_Standalone.ue[1].cellularNic.mac harqErrorRate_2nd_Ul:mean -nan
scalar SingleCell_Standalone.ue[1].cellularNic.mac harqErrorRate_2nd_Dl:mean -nan
scalar SingleCell_Standalone.ue[1].cellularNic.mac harqErrorRate_1st_Ul:mean -nan
scalar SingleCell_Standalone.ue[1].cellularNic.mac harqErrorRate_1st_Dl:mean -nan
scalar SingleCell_Standalone.ue[1].cellularNic.mac harqErrorRateUl:mean -nan
scalar SingleCell_Standalone.ue[1].cellularNic.mac harqErrorRateDl:mean -nan
scalar SingleCell_Standalone.ue[1].cellularNic.mac macCellPacketLossUl:mean -nan
scalar SingleCell_Standalone.ue[1].cellularNic.mac macCellPacketLossDl:mean -nan
scalar SingleCell_Standalone.ue[1].cellularNic.mac macPacketLossUl:mean -nan
scalar SingleCell_Standalone.ue[1].cellularNic.mac macPacketLossDl:mean -nan
scalar SingleCell_Standalone.ue[1].cellularNic.mac macThroughputUl:simu5g_rateavg -nan
scalar SingleCell_Standalone.ue[1].cellularNic.mac macThroughputDl:simu5g_rateavg -nan
scalar SingleCell_Standalone.ue[1].cellularNic.mac macDelayUl:mean -nan
scalar SingleCell_Standalone.ue[1].cellularNic.mac macDelayDl:mean -nan
scalar SingleCell_Standalone.ue[1].cellularNic.mac macCellThroughputUl:simu5g_rateavg -nan
scalar SingleCell_Standalone.ue[1].cellularNic.mac macCellThroughputDl:simu5g_rateavg -nan
scalar SingleCell_Standalone.ue[1].cellularNic.mac rcvdD2DModeSwitchNotification:count 0
scalar SingleCell_Standalone.ue[1].cellularNic.mac sentPacketToLowerLayer:count 0
scalar SingleCell_Standalone.ue[1].cellularNic.mac sentPacketToLowerLayer:sum(packetBytes) 0
scalar SingleCell_Standalone.ue[1].cellularNic.mac sentPacketToUpperLayer:count 0
scalar SingleCell_Standalone.ue[1].cellularNic.mac sentPacketToUpperLayer:sum(packetBytes) 0
scalar SingleCell_Standalone.ue[1].cellularNic.mac receivedPacketFromLowerLayer:count 0
scalar SingleCell_Standalone.ue[1].cellularNic.mac receivedPacketFromLowerLayer:sum(packetBytes) 0
scalar SingleCell_Standalone.ue[1].cellularNic.mac receivedPacketFromUpperLayer:count 0
scalar SingleCell_Standalone.ue[1].cellularNic.mac receivedPacketFromUpperLayer:sum(packetBytes) 0
scalar SingleCell_Standalone.ue[1].cellularNic.mac macBufferOverFlowD2D:mean -nan
scalar SingleCell_Standalone.ue[1].cellularNic.mac macBufferOverFlowUl:mean -nan
scalar SingleCell_Standalone.ue[1].cellularNic.mac macBufferOverFlowDl:mean -nan
scalar SingleCell_Standalone.ue[1].cellularNic.phy distance:mean -nan
scalar SingleCell_Standalone.ue[1].cellularNic.phy averageCqiD2D:mean -nan
scalar SingleCell_Standalone.ue[1].cellularNic.phy averageCqiUl:mean -nan
scalar SingleCell_Standalone.ue[1].cellularNic.phy averageCqiUl:count 0
scalar SingleCell_Standalone.ue[1].cellularNic.phy averageCqiDl:mean -nan
scalar SingleCell_Standalone.ue[1].cellularNic.phy averageCqiDl:count 0
scalar SingleCell_Standalone.ue[1].cellularNic.channelModel[0] measuredSinrUl:mean -nan
scalar SingleCell_Standalone.ue[1].cellularNic.channelModel[0] measuredSinrDl:mean -nan
scalar SingleCell_Standalone.ue[1].cellularNic.channelModel[0] rcvdSinrD2D:mean -nan
scalar SingleCell_Standalone.ue[1].cellularNic.channelModel[0] rcvdSinrUl:mean -nan
scalar SingleCell_Standalone.ue[1].cellularNic.channelModel[0] rcvdSinrDl:mean -nan
scalar SingleCell_Standalone.ue[1].cellularNic.nrRlcMux rlcCellThroughputD2D:simu5g_rateavg -nan
scalar SingleCell_Standalone.ue[1].cellularNic.nrRlcMux rlcPduThroughputD2D:simu5g_rateavg -nan
scalar SingleCell_Standalone.ue[1].cellularNic.nrRlcMux rlcPduDelayD2D:mean -nan
scalar SingleCell_Standalone.ue[1].cellularNic.nrRlcMux rlcThroughputD2D:simu5g_rateavg -nan
scalar SingleCell_Standalone.ue[1].cellularNic.nrRlcMux rlcDelayD2D:mean -nan
scalar SingleCell_Standalone.ue[1].cellularNic.nrRlcMux rlcCellThroughputUl:simu5g_rateavg -nan
scalar SingleCell_Standalone.ue[1].cellularNic.nrRlcMux rlcCellThroughputDl:simu5g_rateavg -nan
scalar SingleCell_Standalone.ue[1].cellularNic.nrRlcMux rlcPduThroughputUl:simu5g_rateavg -nan
scalar SingleCell_Standalone.ue[1].cellularNic.nrRlcMux rlcPduThroughputDl:simu5g_rateavg 0
scalar SingleCell_Standalone.ue[1].cellularNic.nrRlcMux rlcPduDelayUl:mean -nan
scalar SingleCell_Standalone.ue[1].cellularNic.nrRlcMux rlcPduDelayDl:mean 0.0040504012036113035
scalar SingleCell_Standalone.ue[1].cellularNic.nrRlcMux rlcThroughputUl:simu5g_rateavg -nan
scalar SingleCell_Standalone.ue[1].cellularNic.nrRlcMux rlcThroughputDl:simu5g_rateavg 101343.56786900108
scalar SingleCell_Standalone.ue[1].cellularNic.nrRlcMux rlcDelayUl:mean -nan
scalar SingleCell_Standalone.ue[1].cellularNic.nrRlcMux rlcDelayDl:mean 0.0096817002048130863
scalar SingleCell_Standalone.ue[1].cellularNic.nrRlcMux sentPacketToLowerLayer:count 0
scalar SingleCell_Standalone.ue[1].cellularNic.nrRlcMux sentPacketToLowerLayer:sum(packetBytes) 0
scalar SingleCell_Standalone.ue[1].cellularNic.nrRlcMux receivedPacketFromLowerLayer:count 7978
scalar SingleCell_Standalone.ue[1].cellularNic.nrRlcMux receivedPacketFromLowerLayer:sum(packetBytes) 5087724
scalar SingleCell_Standalone.ue[1].cellularNic.nrMac harqErrorRate_4th_D2D:mean -nan
scalar SingleCell_Standalone.ue[1].cellularNic.nrMac harqErrorRate_3rd_D2D:mean -nan
scalar SingleCell_Standalone.ue[1].cellularNic.nrMac harqErrorRate_2nd_D2D:mean -nan
scalar SingleCell_Standalone.ue[1].cellularNic.nrMac harqErrorRate_1st_D2D:mean -nan
scalar SingleCell_Standalone.ue[1].cellularNic.nrMac harqErrorRateD2D:mean -nan
scalar SingleCell_Standalone.ue[1].cellularNic.nrMac macPacketLossD2D:mean -nan
scalar SingleCell_Standalone.ue[1].cellularNic.nrMac macDelayD2D:mean -nan
scalar SingleCell_Standalone.ue[1].cellularNic.nrMac macThroughputD2D:simu5g_rateavg -nan
scalar SingleCell_Standalone.ue[1].cellularNic.nrMac harqTxAttemptsUl:mean -nan
scalar SingleCell_Standalone.ue[1].cellularNic.nrMac harqTxAttemptsDl:mean 1.006768613687641
scalar SingleCell_Standalone.ue[1].cellularNic.nrMac harqErrorRate_4th_Ul:mean -nan
scalar SingleCell_Standalone.ue[1].cellularNic.nrMac harqErrorRate_4th_Dl:mean -nan
scalar SingleCell_Standalone.ue[1].cellularNic.nrMac harqErrorRate_3rd_Ul:mean -nan
scalar SingleCell_Standalone.ue[1].cellularNic.nrMac harqErrorRate_3rd_Dl:mean -nan
scalar SingleCell_Standalone.ue[1].cellularNic.nrMac harqErrorRate_2nd_Ul:mean -nan
scalar SingleCell_Standalone.ue[1].cellularNic.nrMac harqErrorRate_2nd_Dl:mean 0
scalar SingleCell_Standalone.ue[1].cellularNic.nrMac harqErrorRate_1st_Ul:mean -nan
scalar SingleCell_Standalone.ue[1].cellularNic.nrMac harqErrorRate_1st_Dl:mean 0.0067686136876410124
scalar SingleCell_Standalone.ue[1].cellularNic.nrMac harqErrorRateUl:mean -nan
scalar SingleCell_Standalone.ue[1].cellularNic.nrMac harqErrorRateDl:mean 0.0067231075697211156
scalar SingleCell_Standalone.ue[1].cellularNic.nrMac macCellPacketLossUl:mean -nan
scalar SingleCell_Standalone.ue[1].cellularNic.nrMac macCellPacketLossDl:mean -nan
scalar SingleCell_Standalone.ue[1].cellularNic.nrMac macPacketLossUl:mean -nan
scalar SingleCell_Standalone.ue[1].cellularNic.nrMac macPacketLossDl:mean 0
scalar SingleCell_Standalone.ue[1].cellularNic.nrMac macThroughputUl:simu5g_rateavg -nan
scalar SingleCell_Standalone.ue[1].cellularNic.nrMac macThroughputDl:simu5g_rateavg 57793.154928840646
scalar SingleCell_Standalone.ue[1].cellularNic.nrMac macDelayUl:mean -nan
scalar SingleCell_Standalone.ue[1].cellularNic.nrMac macDelayDl:mean 0.0041120581599402503
scalar SingleCell_Standalone.ue[1].cellularNic.nrMac macCellThroughputUl:simu5g_rateavg -nan
scalar SingleCell_Standalone.ue[1].cellularNic.nrMac macCellThroughputDl:simu5g_rateavg -nan
scalar SingleCell_Standalone.ue[1].cellularNic.nrMac rcvdD2DModeSwitchNotification:count 0
scalar SingleCell_Standalone.ue[1].cellularNic.nrMac sentPacketToLowerLayer:count 8032
scalar SingleCell_Standalone.ue[1].cellularNic.nrMac sentPacketToLowerLayer:sum(packetBytes) 8032
scalar SingleCell_Standalone.ue[1].cellularNic.nrMac sentPacketToUpperLayer:count 7978
scalar SingleCell_Standalone.ue[1].cellularNic.nrMac sentPacketToUpperLayer:sum(packetBytes) 5087724
scalar SingleCell_Standalone.ue[1].cellularNic.nrMac receivedPacketFromLowerLayer:count 8033
scalar SingleCell_Standalone.ue[1].cellularNic.nrMac receivedPacketFromLowerLayer:sum(packetBytes) 5143109
scalar SingleCell_Standalone.ue[1].cellularNic.nrMac receivedPacketFromUpperLayer:count 0
scalar SingleCell_Standalone.ue[1].cellularNic.nrMac receivedPacketFromUpperLayer:sum(packetBytes) 0
scalar SingleCell_Standalone.ue[1].cellularNic.nrMac macBufferOverFlowD2D:mean -nan
scalar SingleCell_Standalone.ue[1].cellularNic.nrMac macBufferOverFlowUl:mean -nan
scalar SingleCell_Standalone.ue[1].cellularNic.nrMac macBufferOverFlowDl:mean -nan
scalar SingleCell_Standalone.ue[1].cellularNic.nrPhy distance:mean 105.46874161268697
scalar SingleCell_Standalone.ue[1].cellularNic.nrPhy averageCqiD2D:mean -nan
scalar SingleCell_Standalone.ue[1].cellularNic.nrPhy averageCqiUl:mean -nan
scalar SingleCell_Standalone.ue[1].cellularNic.nrPhy averageCqiUl:count 0
scalar SingleCell_Standalone.ue[1].cellularNic.nrPhy averageCqiDl:mean 14.768455122619196
scalar SingleCell_Standalone.ue[1].cellularNic.nrPhy averageCqiDl:count 8033
scalar SingleCell_Standalone.ue[1].cellularNic.nrChannelModel[0] measuredSinrUl:mean 41.623221844494104
scalar SingleCell_Standalone.ue[1].cellularNic.nrChannelModel[0] measuredSinrDl:mean 50.697282329385871
scalar SingleCell_Standalone.ue[1].cellularNic.nrChannelModel[0] rcvdSinrD2D:mean -nan
scalar SingleCell_Standalone.ue[1].cellularNic.nrChannelModel[0] rcvdSinrUl:mean -nan
scalar SingleCell_Standalone.ue[1].cellularNic.nrChannelModel[0] rcvdSinrDl:mean 53.645900316627866
scalar SingleCell_Standalone.ue[1].cellularNic.nrChannelModel[1] measuredSinrUl:mean 33.839143043279407
scalar SingleCell_Standalone.ue[1].cellularNic.nrChannelModel[1] measuredSinrDl:mean 46.93674617018322
scalar SingleCell_Standalone.ue[1].cellularNic.nrChannelModel[1] rcvdSinrD2D:mean -nan
scalar SingleCell_Standalone.ue[1].cellularNic.nrChannelModel[1] rcvdSinrUl:mean -nan
scalar SingleCell_Standalone.ue[1].cellularNic.nrChannelModel[1] rcvdSinrDl:mean 46.898927829475276
scalar SingleCell_Standalone.ue[1].cellularNic packetDropInterfaceDown:count 0
scalar SingleCell_Standalone.ue[1].cellularNic packetDropInterfaceDown:sum(packetBytes) 0
scalar SingleCell_Standalone.ue[1].cellularNic packetDropNoCarrier:count 0
scalar SingleCell_Standalone.ue[1].cellularNic packetDropNoCarrier:sum(packetBytes) 0
scalar SingleCell_Standalone.ue[1].encap pauseSent:count 0
scalar SingleCell_Standalone.ue[1].encap pauseSent:sum 0
scalar SingleCell_Standalone.ue[1].encap decapPk:count 0
scalar SingleCell_Standalone.ue[1].encap decapPk:sum(packetBytes) 0
scalar SingleCell_Standalone.ue[1].encap encapPk:count 0
scalar SingleCell_Standalone.ue[1].encap encapPk:sum(packetBytes) 0
scalar SingleCell_Standalone.ue[1].ipv4.ip packetDropAddressResolutionFailed:count 0
scalar SingleCell_Standalone.ue[1].ipv4.ip packetDropAddressResolutionFailed:sum(packetBytes) 0
scalar SingleCell_Standalone.ue[1].ipv4.ip packetDropHopLimitReached:count 0
scalar SingleCell_Standalone.ue[1].ipv4.ip packetDropHopLimitReached:sum(packetBytes) 0
scalar SingleCell_Standalone.ue[1].ipv4.ip packetDropForwardingDisabled:count 0
scalar SingleCell_Standalone.ue[1].ipv4.ip packetDropForwardingDisabled:sum(packetBytes) 0
scalar SingleCell_Standalone.ue[1].ipv4.ip packetDropNoInterfaceFound:count 0
scalar SingleCell_Standalone.ue[1].ipv4.ip packetDropNoInterfaceFound:sum(packetBytes) 0
scalar SingleCell_Standalone.ue[1].ipv4.ip packetDropNoRouteFound:count 0
scalar SingleCell_Standalone.ue[1].ipv4.ip packetDropNoRouteFound:sum(packetBytes) 0
scalar SingleCell_Standalone.ue[1].ipv4.ip packetDropUndefined:count 0
scalar SingleCell_Standalone.ue[1].ipv4.ip packetDropUndefined:sum(packetBytes) 0
scalar SingleCell_Standalone.ue[1].ipv4.arp arpResolutionFailed:count 0
scalar SingleCell_Standalone.ue[1].ipv4.arp arpResolutionCompleted:count 0
scalar SingleCell_Standalone.ue[1].ipv4.arp arpResolutionInitiated:count 0
scalar SingleCell_Standalone.ue[1].ipv4.arp arpReplySent:count 0
scalar SingleCell_Standalone.ue[1].ipv4.arp arpReplySent:sum(packetBytes) 0
scalar SingleCell_Standalone.ue[1].ipv4.arp arpRequestSent:count 0
scalar SingleCell_Standalone.ue[1].ipv4.arp arpRequestSent:sum(packetBytes) 0
scalar SingleCell_Standalone.ue[1].udp packetReceived:count 2497
scalar SingleCell_Standalone.ue[1].udp packetReceived:sum(packetBytes) 5013976
scalar SingleCell_Standalone.ue[1].udp packetSent:count 0
scalar SingleCell_Standalone.ue[1].udp packetSent:sum(packetBytes) 0
scalar SingleCell_Standalone.ue[1].udp passedUpPk:count 2497
scalar SingleCell_Standalone.ue[1].udp droppedPkWrongPort:count 0
scalar SingleCell_Standalone.ue[1].udp droppedPkBadChecksum:count 0
scalar SingleCell_Standalone.ue[1].app[0] cbrReceivedBytes:mean 2000
scalar SingleCell_Standalone.ue[1].app[0] cbrReceivedBytes:sum 4994000
scalar SingleCell_Standalone.ue[1].app[0] cbrReceivedThroughput:simu5g_rateavg 99880
scalar SingleCell_Standalone.ue[1].app[0] cbrJitter:mean -nan
scalar SingleCell_Standalone.ue[1].app[0] cbrFrameDelay:mean 0.0096884698048130321
scalar SingleCell_Standalone.ue[1].app[0] cbrFrameLoss:mean 0
scalar SingleCell_Standalone.ue[2].lo[0].lo rcvdPkFromHl:count 0
scalar SingleCell_Standalone.ue[2].lo[0].lo rcvdPkFromHl:sum(packetBytes) 0
scalar SingleCell_Standalone.ue[2].lo[0].lo passedUpPk:count 0
scalar SingleCell_Standalone.ue[2].lo[0].lo passedUpPk:sum(packetBytes) 0
scalar SingleCell_Standalone.ue[2].lo[0] packetDropInterfaceDown:count 0
scalar SingleCell_Standalone.ue[2].lo[0] packetDropInterfaceDown:sum(packetBytes) 0
scalar SingleCell_Standalone.ue[2].lo[0] packetDropNoCarrier:count 0
scalar SingleCell_Standalone.ue[2].lo[0] packetDropNoCarrier:sum(packetBytes) 0
scalar SingleCell_Standalone.ue[2].cellularNic.rlcMux rlcCellThroughputD2D:simu5g_rateavg -nan
scalar SingleCell_Standalone.ue[2].cellularNic.rlcMux rlcPduThroughputD2D:simu5g_rateavg -nan
scalar SingleCell_Standalone.ue[2].cellularNic.rlcMux rlcPduDelayD2D:mean -nan
scalar SingleCell_Standalone.ue[2].cellularNic.rlcMux rlcThroughputD2D:simu5g_rateavg -nan
scalar SingleCell_Standalone.ue[2].cellularNic.rlcMux rlcDelayD2D:mean -nan
scalar SingleCell_Standalone.ue[2].cellularNic.rlcMux rlcCellThroughputUl:simu5g_rateavg -nan
scalar SingleCell_Standalone.ue[2].cellularNic.rlcMux rlcCellThroughputDl:simu5g_rateavg -nan
[...]
scalar SingleCell_Standalone.ue[9].cellularNic.nrChannelModel[1] rcvdSinrD2D:vector:sum 0
scalar SingleCell_Standalone.ue[9].cellularNic.nrChannelModel[1] rcvdSinrD2D:vector:sumweights 0
scalar SingleCell_Standalone.ue[9].cellularNic.nrChannelModel[1] rcvdSinrD2D:vector:mean -nan
scalar SingleCell_Standalone.ue[9].cellularNic.nrChannelModel[1] rcvdSinrD2D:vector:stddev nan
scalar SingleCell_Standalone.ue[9].cellularNic.nrChannelModel[1] rcvdSinrD2D:vector:min inf
scalar SingleCell_Standalone.ue[9].cellularNic.nrChannelModel[1] rcvdSinrD2D:vector:max -inf
scalar SingleCell_Standalone.ue[9].cellularNic.nrChannelModel[1] rcvdSinrD2D:vector:starttime nan
scalar SingleCell_Standalone.ue[9].cellularNic.nrChannelModel[1] rcvdSinrD2D:vector:endtime nan
scalar SingleCell_Standalone.ue[9].cellularNic.nrChannelModel[1] measuredSinrDl:vector:count 5000
scalar SingleCell_Standalone.ue[9].cellularNic.nrChannelModel[1] measuredSinrDl:vector:sum 171959.6573604219
scalar SingleCell_Standalone.ue[9].cellularNic.nrChannelModel[1] measuredSinrDl:vector:sumweights 5000
scalar SingleCell_Standalone.ue[9].cellularNic.nrChannelModel[1] measuredSinrDl:vector:mean 34.39193147208438
scalar SingleCell_Standalone.ue[9].cellularNic.nrChannelModel[1] measuredSinrDl:vector:stddev 7.792460071583478
scalar SingleCell_Standalone.ue[9].cellularNic.nrChannelModel[1] measuredSinrDl:vector:min 8.4847833326712276
scalar SingleCell_Standalone.ue[9].cellularNic.nrChannelModel[1] measuredSinrDl:vector:max 56.185743691566763
scalar SingleCell_Standalone.ue[9].cellularNic.nrChannelModel[1] measuredSinrDl:vector:starttime 0.002
scalar SingleCell_Standalone.ue[9].cellularNic.nrChannelModel[1] measuredSinrDl:vector:endtime 49.992000000000004
scalar SingleCell_Standalone.ue[9].cellularNic.nrChannelModel[1] measuredSinrUl:vector:count 5000
scalar SingleCell_Standalone.ue[9].cellularNic.nrChannelModel[1] measuredSinrUl:vector:sum 103021.10395736515
scalar SingleCell_Standalone.ue[9].cellularNic.nrChannelModel[1] measuredSinrUl:vector:sumweights 5000
scalar SingleCell_Standalone.ue[9].cellularNic.nrChannelModel[1] measuredSinrUl:vector:mean 20.604220791473029
scalar SingleCell_Standalone.ue[9].cellularNic.nrChannelModel[1] measuredSinrUl:vector:stddev 6.4112296346232753
scalar SingleCell_Standalone.ue[9].cellularNic.nrChannelModel[1] measuredSinrUl:vector:min 2.5271348190697651
scalar SingleCell_Standalone.ue[9].cellularNic.nrChannelModel[1] measuredSinrUl:vector:max 41.611388240210765
scalar SingleCell_Standalone.ue[9].cellularNic.nrChannelModel[1] measuredSinrUl:vector:starttime 0.002
scalar SingleCell_Standalone.ue[9].cellularNic.nrChannelModel[1] measuredSinrUl:vector:endtime 49.992000000000004
scalar SingleCell_Standalone.ue[9].cellularNic packetDropInterfaceDown:vector(packetBytes):count 0
scalar SingleCell_Standalone.ue[9].cellularNic packetDropInterfaceDown:vector(packetBytes):sum 0
scalar SingleCell_Standalone.ue[9].cellularNic packetDropInterfaceDown:vector(packetBytes):sumweights 0
scalar SingleCell_Standalone.ue[9].cellularNic packetDropInterfaceDown:vector(packetBytes):mean -nan
scalar SingleCell_Standalone.ue[9].cellularNic packetDropInterfaceDown:vector(packetBytes):stddev nan
scalar SingleCell_Standalone.ue[9].cellularNic packetDropInterfaceDown:vector(packetBytes):min inf
scalar SingleCell_Standalone.ue[9].cellularNic packetDropInterfaceDown:vector(packetBytes):max -inf
scalar SingleCell_Standalone.ue[9].cellularNic packetDropInterfaceDown:vector(packetBytes):starttime nan
scalar SingleCell_Standalone.ue[9].cellularNic packetDropInterfaceDown:vector(packetBytes):endtime nan
scalar SingleCell_Standalone.ue[9].cellularNic packetDropNoCarrier:vector(packetBytes):count 0
scalar SingleCell_Standalone.ue[9].cellularNic packetDropNoCarrier:vector(packetBytes):sum 0
scalar SingleCell_Standalone.ue[9].cellularNic packetDropNoCarrier:vector(packetBytes):sumweights 0
scalar SingleCell_Standalone.ue[9].cellularNic packetDropNoCarrier:vector(packetBytes):mean -nan
scalar SingleCell_Standalone.ue[9].cellularNic packetDropNoCarrier:vector(packetBytes):stddev nan
scalar SingleCell_Standalone.ue[9].cellularNic packetDropNoCarrier:vector(packetBytes):min inf
scalar SingleCell_Standalone.ue[9].cellularNic packetDropNoCarrier:vector(packetBytes):max -inf
scalar SingleCell_Standalone.ue[9].cellularNic packetDropNoCarrier:vector(packetBytes):starttime nan
scalar SingleCell_Standalone.ue[9].cellularNic packetDropNoCarrier:vector(packetBytes):endtime nan
scalar SingleCell_Standalone.ue[9].encap encapPk:vector(packetBytes):count 0
scalar SingleCell_Standalone.ue[9].encap encapPk:vector(packetBytes):sum 0
scalar SingleCell_Standalone.ue[9].encap encapPk:vector(packetBytes):sumweights 0
scalar SingleCell_Standalone.ue[9].encap encapPk:vector(packetBytes):mean -nan
scalar SingleCell_Standalone.ue[9].encap encapPk:vector(packetBytes):stddev nan
scalar SingleCell_Standalone.ue[9].encap encapPk:vector(packetBytes):min inf
scalar SingleCell_Standalone.ue[9].encap encapPk:vector(packetBytes):max -inf
scalar SingleCell_Standalone.ue[9].encap encapPk:vector(packetBytes):starttime nan
scalar SingleCell_Standalone.ue[9].encap encapPk:vector(packetBytes):endtime nan
scalar SingleCell_Standalone.ue[9].encap decapPk:vector(packetBytes):count 0
scalar SingleCell_Standalone.ue[9].encap decapPk:vector(packetBytes):sum 0
scalar SingleCell_Standalone.ue[9].encap decapPk:vector(packetBytes):sumweights 0
scalar SingleCell_Standalone.ue[9].encap decapPk:vector(packetBytes):mean -nan
scalar SingleCell_Standalone.ue[9].encap decapPk:vector(packetBytes):stddev nan
scalar SingleCell_Standalone.ue[9].encap decapPk:vector(packetBytes):min inf
scalar SingleCell_Standalone.ue[9].encap decapPk:vector(packetBytes):max -inf
scalar SingleCell_Standalone.ue[9].encap decapPk:vector(packetBytes):starttime nan
scalar SingleCell_Standalone.ue[9].encap decapPk:vector(packetBytes):endtime nan
scalar SingleCell_Standalone.ue[9].encap pauseSent:vector:count 0
scalar SingleCell_Standalone.ue[9].encap pauseSent:vector:sum 0
scalar SingleCell_Standalone.ue[9].encap pauseSent:vector:sumweights 0
scalar SingleCell_Standalone.ue[9].encap pauseSent:vector:mean -nan
scalar SingleCell_Standalone.ue[9].encap pauseSent:vector:stddev nan
scalar SingleCell_Standalone.ue[9].encap pauseSent:vector:min inf
scalar SingleCell_Standalone.ue[9].encap pauseSent:vector:max -inf
scalar SingleCell_Standalone.ue[9].encap pauseSent:vector:starttime nan
scalar SingleCell_Standalone.ue[9].encap pauseSent:vector:endtime nan
scalar SingleCell_Standalone.ue[9].ipv4.ip packetDropAddressResolutionFailed:vector(packetBytes):count 0
scalar SingleCell_Standalone.ue[9].ipv4.ip packetDropAddressResolutionFailed:vector(packetBytes):sum 0
scalar SingleCell_Standalone.ue[9].ipv4.ip packetDropAddressResolutionFailed:vector(packetBytes):sumweights 0
scalar SingleCell_Standalone.ue[9].ipv4.ip packetDropAddressResolutionFailed:vector(packetBytes):mean -nan
scalar SingleCell_Standalone.ue[9].ipv4.ip packetDropAddressResolutionFailed:vector(packetBytes):stddev nan
scalar SingleCell_Standalone.ue[9].ipv4.ip packetDropAddressResolutionFailed:vector(packetBytes):min inf
scalar SingleCell_Standalone.ue[9].ipv4.ip packetDropAddressResolutionFailed:vector(packetBytes):max -inf
scalar SingleCell_Standalone.ue[9].ipv4.ip packetDropAddressResolutionFailed:vector(packetBytes):starttime nan
scalar SingleCell_Standalone.ue[9].ipv4.ip packetDropAddressResolutionFailed:vector(packetBytes):endtime nan
scalar SingleCell_Standalone.ue[9].ipv4.ip packetDropHopLimitReached:vector(packetBytes):count 0
scalar SingleCell_Standalone.ue[9].ipv4.ip packetDropHopLimitReached:vector(packetBytes):sum 0
scalar SingleCell_Standalone.ue[9].ipv4.ip packetDropHopLimitReached:vector(packetBytes):sumweights 0
scalar SingleCell_Standalone.ue[9].ipv4.ip packetDropHopLimitReached:vector(packetBytes):mean -nan
scalar SingleCell_Standalone.ue[9].ipv4.ip packetDropHopLimitReached:vector(packetBytes):stddev nan
scalar SingleCell_Standalone.ue[9].ipv4.ip packetDropHopLimitReached:vector(packetBytes):min inf
scalar SingleCell_Standalone.ue[9].ipv4.ip packetDropHopLimitReached:vector(packetBytes):max -inf
scalar SingleCell_Standalone.ue[9].ipv4.ip packetDropHopLimitReached:vector(packetBytes):starttime nan
scalar SingleCell_Standalone.ue[9].ipv4.ip packetDropHopLimitReached:vector(packetBytes):endtime nan
scalar SingleCell_Standalone.ue[9].ipv4.ip packetDropForwardingDisabled:vector(packetBytes):count 0
scalar SingleCell_Standalone.ue[9].ipv4.ip packetDropForwardingDisabled:vector(packetBytes):sum 0
scalar SingleCell_Standalone.ue[9].ipv4.ip packetDropForwardingDisabled:vector(packetBytes):sumweights 0
scalar SingleCell_Standalone.ue[9].ipv4.ip packetDropForwardingDisabled:vector(packetBytes):mean -nan
scalar SingleCell_Standalone.ue[9].ipv4.ip packetDropForwardingDisabled:vector(packetBytes):stddev nan
scalar SingleCell_Standalone.ue[9].ipv4.ip packetDropForwardingDisabled:vector(packetBytes):min inf
scalar SingleCell_Standalone.ue[9].ipv4.ip packetDropForwardingDisabled:vector(packetBytes):max -inf
scalar SingleCell_Standalone.ue[9].ipv4.ip packetDropForwardingDisabled:vector(packetBytes):starttime nan
scalar SingleCell_Standalone.ue[9].ipv4.ip packetDropForwardingDisabled:vector(packetBytes):endtime nan
scalar SingleCell_Standalone.ue[9].ipv4.ip packetDropNoInterfaceFound:vector(packetBytes):count 0
scalar SingleCell_Standalone.ue[9].ipv4.ip packetDropNoInterfaceFound:vector(packetBytes):sum 0
scalar SingleCell_Standalone.ue[9].ipv4.ip packetDropNoInterfaceFound:vector(packetBytes):sumweights 0
scalar SingleCell_Standalone.ue[9].ipv4.ip packetDropNoInterfaceFound:vector(packetBytes):mean -nan
scalar SingleCell_Standalone.ue[9].ipv4.ip packetDropNoInterfaceFound:vector(packetBytes):stddev nan
scalar SingleCell_Standalone.ue[9].ipv4.ip packetDropNoInterfaceFound:vector(packetBytes):min inf
scalar SingleCell_Standalone.ue[9].ipv4.ip packetDropNoInterfaceFound:vector(packetBytes):max -inf
scalar SingleCell_Standalone.ue[9].ipv4.ip packetDropNoInterfaceFound:vector(packetBytes):starttime nan
scalar SingleCell_Standalone.ue[9].ipv4.ip packetDropNoInterfaceFound:vector(packetBytes):endtime nan
scalar SingleCell_Standalone.ue[9].ipv4.ip packetDropNoRouteFound:vector(packetBytes):count 0
scalar SingleCell_Standalone.ue[9].ipv4.ip packetDropNoRouteFound:vector(packetBytes):sum 0
scalar SingleCell_Standalone.ue[9].ipv4.ip packetDropNoRouteFound:vector(packetBytes):sumweights 0
scalar SingleCell_Standalone.ue[9].ipv4.ip packetDropNoRouteFound:vector(packetBytes):mean -nan
scalar SingleCell_Standalone.ue[9].ipv4.ip packetDropNoRouteFound:vector(packetBytes):stddev nan
scalar SingleCell_Standalone.ue[9].ipv4.ip packetDropNoRouteFound:vector(packetBytes):min inf
scalar SingleCell_Standalone.ue[9].ipv4.ip packetDropNoRouteFound:vector(packetBytes):max -inf
scalar SingleCell_Standalone.ue[9].ipv4.ip packetDropNoRouteFound:vector(packetBytes):starttime nan
scalar SingleCell_Standalone.ue[9].ipv4.ip packetDropNoRouteFound:vector(packetBytes):endtime nan
scalar SingleCell_Standalone.ue[9].ipv4.ip packetDropUndefined:vector(packetBytes):count 0
scalar SingleCell_Standalone.ue[9].ipv4.ip packetDropUndefined:vector(packetBytes):sum 0
scalar SingleCell_Standalone.ue[9].ipv4.ip packetDropUndefined:vector(packetBytes):sumweights 0
scalar SingleCell_Standalone.ue[9].ipv4.ip packetDropUndefined:vector(packetBytes):mean -nan
scalar SingleCell_Standalone.ue[9].ipv4.ip packetDropUndefined:vector(packetBytes):stddev nan
scalar SingleCell_Standalone.ue[9].ipv4.ip packetDropUndefined:vector(packetBytes):min inf
scalar SingleCell_Standalone.ue[9].ipv4.ip packetDropUndefined:vector(packetBytes):max -inf
scalar SingleCell_Standalone.ue[9].ipv4.ip packetDropUndefined:vector(packetBytes):starttime nan
scalar SingleCell_Standalone.ue[9].ipv4.ip packetDropUndefined:vector(packetBytes):endtime nan
scalar SingleCell_Standalone.ue[9].ipv4.arp arpRequestSent:vector(packetBytes):count 0
scalar SingleCell_Standalone.ue[9].ipv4.arp arpRequestSent:vector(packetBytes):sum 0
scalar SingleCell_Standalone.ue[9].ipv4.arp arpRequestSent:vector(packetBytes):sumweights 0
scalar SingleCell_Standalone.ue[9].ipv4.arp arpRequestSent:vector(packetBytes):mean -nan
scalar SingleCell_Standalone.ue[9].ipv4.arp arpRequestSent:vector(packetBytes):stddev nan
scalar SingleCell_Standalone.ue[9].ipv4.arp arpRequestSent:vector(packetBytes):min inf
scalar SingleCell_Standalone.ue[9].ipv4.arp arpRequestSent:vector(packetBytes):max -inf
scalar SingleCell_Standalone.ue[9].ipv4.arp arpRequestSent:vector(packetBytes):starttime nan
scalar SingleCell_Standalone.ue[9].ipv4.arp arpRequestSent:vector(packetBytes):endtime nan
scalar SingleCell_Standalone.ue[9].ipv4.arp arpReplySent:vector(packetBytes):count 0
scalar SingleCell_Standalone.ue[9].ipv4.arp arpReplySent:vector(packetBytes):sum 0
scalar SingleCell_Standalone.ue[9].ipv4.arp arpReplySent:vector(packetBytes):sumweights 0
scalar SingleCell_Standalone.ue[9].ipv4.arp arpReplySent:vector(packetBytes):mean -nan
scalar SingleCell_Standalone.ue[9].ipv4.arp arpReplySent:vector(packetBytes):stddev nan
scalar SingleCell_Standalone.ue[9].ipv4.arp arpReplySent:vector(packetBytes):min inf
scalar SingleCell_Standalone.ue[9].ipv4.arp arpReplySent:vector(packetBytes):max -inf
scalar SingleCell_Standalone.ue[9].ipv4.arp arpReplySent:vector(packetBytes):starttime nan
scalar SingleCell_Standalone.ue[9].ipv4.arp arpReplySent:vector(packetBytes):endtime nan
scalar SingleCell_Standalone.ue[9].udp packetSent:vector(packetBytes):count 0
scalar SingleCell_Standalone.ue[9].udp packetSent:vector(packetBytes):sum 0
scalar SingleCell_Standalone.ue[9].udp packetSent:vector(packetBytes):sumweights 0
scalar SingleCell_Standalone.ue[9].udp packetSent:vector(packetBytes):mean -nan
scalar SingleCell_Standalone.ue[9].udp packetSent:vector(packetBytes):stddev nan
scalar SingleCell_Standalone.ue[9].udp packetSent:vector(packetBytes):min inf
scalar SingleCell_Standalone.ue[9].udp packetSent:vector(packetBytes):max -inf
scalar SingleCell_Standalone.ue[9].udp packetSent:vector(packetBytes):starttime nan
scalar SingleCell_Standalone.ue[9].udp packetSent:vector(packetBytes):endtime nan
scalar SingleCell_Standalone.ue[9].udp packetReceived:vector(packetBytes):count 2489
scalar SingleCell_Standalone.ue[9].udp packetReceived:vector(packetBytes):sum 4997912
scalar SingleCell_Standalone.ue[9].udp packetReceived:vector(packetBytes):sumweights 2489
scalar SingleCell_Standalone.ue[9].udp packetReceived:vector(packetBytes):mean 2008
scalar SingleCell_Standalone.ue[9].udp packetReceived:vector(packetBytes):stddev 0
scalar SingleCell_Standalone.ue[9].udp packetReceived:vector(packetBytes):min 2008
scalar SingleCell_Standalone.ue[9].udp packetReceived:vector(packetBytes):max 2008
scalar SingleCell_Standalone.ue[9].udp packetReceived:vector(packetBytes):starttime 0.017000000000000001
scalar SingleCell_Standalone.ue[9].udp packetReceived:vector(packetBytes):endtime 49.997
scalar SingleCell_Standalone.ue[9].udp passedUpPk:vector(count):count 2490
scalar SingleCell_Standalone.ue[9].udp passedUpPk:vector(count):sum 3098805
scalar SingleCell_Standalone.ue[9].udp passedUpPk:vector(count):sumweights 2490
scalar SingleCell_Standalone.ue[9].udp passedUpPk:vector(count):mean 1244.5
scalar SingleCell_Standalone.ue[9].udp passedUpPk:vector(count):stddev 718.94540821956707
scalar SingleCell_Standalone.ue[9].udp passedUpPk:vector(count):min 0
scalar SingleCell_Standalone.ue[9].udp passedUpPk:vector(count):max 2489
scalar SingleCell_Standalone.ue[9].udp passedUpPk:vector(count):starttime 0
scalar SingleCell_Standalone.ue[9].udp passedUpPk:vector(count):endtime 49.997
scalar SingleCell_Standalone.ue[9].udp droppedPkWrongPort:vector(count):count 1
scalar SingleCell_Standalone.ue[9].udp droppedPkWrongPort:vector(count):sum 0
scalar SingleCell_Standalone.ue[9].udp droppedPkWrongPort:vector(count):sumweights 1
scalar SingleCell_Standalone.ue[9].udp droppedPkWrongPort:vector(count):mean 0
scalar SingleCell_Standalone.ue[9].udp droppedPkWrongPort:vector(count):stddev nan
scalar SingleCell_Standalone.ue[9].udp droppedPkWrongPort:vector(count):min 0
scalar SingleCell_Standalone.ue[9].udp droppedPkWrongPort:vector(count):max 0
scalar SingleCell_Standalone.ue[9].udp droppedPkWrongPort:vector(count):starttime 0
scalar SingleCell_Standalone.ue[9].udp droppedPkWrongPort:vector(count):endtime 0
scalar SingleCell_Standalone.ue[9].udp droppedPkBadChecksum:vector(count):count 1
scalar SingleCell_Standalone.ue[9].udp droppedPkBadChecksum:vector(count):sum 0
scalar SingleCell_Standalone.ue[9].udp droppedPkBadChecksum:vector(count):sumweights 1
scalar SingleCell_Standalone.ue[9].udp droppedPkBadChecksum:vector(count):mean 0
scalar SingleCell_Standalone.ue[9].udp droppedPkBadChecksum:vector(count):stddev nan
scalar SingleCell_Standalone.ue[9].udp droppedPkBadChecksum:vector(count):min 0
scalar SingleCell_Standalone.ue[9].udp droppedPkBadChecksum:vector(count):max 0
scalar SingleCell_Standalone.ue[9].udp droppedPkBadChecksum:vector(count):starttime 0
scalar SingleCell_Standalone.ue[9].udp droppedPkBadChecksum:vector(count):endtime 0
scalar SingleCell_Standalone.ue[9].app[0] cbrFrameDelay:vector:count 2489
scalar SingleCell_Standalone.ue[9].app[0] cbrFrameDelay:vector:sum 19.787257227324869
scalar SingleCell_Standalone.ue[9].app[0] cbrFrameDelay:vector:sumweights 2489
scalar SingleCell_Standalone.ue[9].app[0] cbrFrameDelay:vector:mean 0.0079498823733727877
scalar SingleCell_Standalone.ue[9].app[0] cbrFrameDelay:vector:stddev 0.0082391188901570628
scalar SingleCell_Standalone.ue[9].app[0] cbrFrameDelay:vector:min 0.0064143259249999996
scalar SingleCell_Standalone.ue[9].app[0] cbrFrameDelay:vector:max 0.096414325925000002
scalar SingleCell_Standalone.ue[9].app[0] cbrFrameDelay:vector:starttime 0.017000000000000001
scalar SingleCell_Standalone.ue[9].app[0] cbrFrameDelay:vector:endtime 49.997
scalar SingleCell_Standalone.ue[9].app[0] cbrJitter:vector:count 0
scalar SingleCell_Standalone.ue[9].app[0] cbrJitter:vector:sum 0
scalar SingleCell_Standalone.ue[9].app[0] cbrJitter:vector:sumweights 0
scalar SingleCell_Standalone.ue[9].app[0] cbrJitter:vector:mean -nan
scalar SingleCell_Standalone.ue[9].app[0] cbrJitter:vector:stddev nan
scalar SingleCell_Standalone.ue[9].app[0] cbrJitter:vector:min inf
scalar SingleCell_Standalone.ue[9].app[0] cbrJitter:vector:max -inf
scalar SingleCell_Standalone.ue[9].app[0] cbrJitter:vector:starttime nan
scalar SingleCell_Standalone.ue[9].app[0] cbrJitter:vector:endtime nan
scalar SingleCell_Standalone.ue[9].app[0] cbrReceivedBytes:vector:count 2489
scalar SingleCell_Standalone.ue[9].app[0] cbrReceivedBytes:vector:sum 4978000
scalar SingleCell_Standalone.ue[9].app[0] cbrReceivedBytes:vector:sumweights 2489
scalar SingleCell_Standalone.ue[9].app[0] cbrReceivedBytes:vector:mean 2000
scalar SingleCell_Standalone.ue[9].app[0] cbrReceivedBytes:vector:stddev 0
scalar SingleCell_Standalone.ue[9].app[0] cbrReceivedBytes:vector:min 2000
scalar SingleCell_Standalone.ue[9].app[0] cbrReceivedBytes:vector:max 2000
scalar SingleCell_Standalone.ue[9].app[0] cbrReceivedBytes:vector:starttime 0.017000000000000001
scalar SingleCell_Standalone.ue[9].app[0] cbrReceivedBytes:vector:endtime 49.997
scalar SingleCell_Standalone.ue[9].app[0] cbrRcvdPkt:vector:count 2489
scalar SingleCell_Standalone.ue[9].app[0] cbrRcvdPkt:vector:sum 3101942
scalar SingleCell_Standalone.ue[9].app[0] cbrRcvdPkt:vector:sumweights 2489
scalar SingleCell_Standalone.ue[9].app[0] cbrRcvdPkt:vector:mean 1246.2603455202893
scalar SingleCell_Standalone.ue[9].app[0] cbrRcvdPkt:vector:stddev 721.53593857101748
scalar SingleCell_Standalone.ue[9].app[0] cbrRcvdPkt:vector:min 0
scalar SingleCell_Standalone.ue[9].app[0] cbrRcvdPkt:vector:max 2499
scalar SingleCell_Standalone.ue[9].app[0] cbrRcvdPkt:vector:starttime 0.017000000000000001
scalar SingleCell_Standalone.ue[9].app[0] cbrRcvdPkt:vector:endtime 49.997

