version 3
run SingleCarrier-CBR-UL-0-20260712-21:02:04-254158
attr configname SingleCarrier-CBR-UL
attr datetime 20260712-21:02:04
attr datetimef 20260712-210204
attr experiment SingleCarrier-CBR-UL
attr inifile omnetpp.ini
attr iterationvars $numUe=10
attr iterationvarsd numUe=10
attr iterationvarsf numUe=10-
attr measurement $numUe=10
attr network simu5g.simulations.nr.networks.SingleCell_Standalone
attr processid 254158
attr repetition 0
attr replication #0
attr resultdir results
attr runnumber 0
attr seedset 0
itervar numUe 10
config **.param-recording false
config image-path /home/andras/projects/Simu5G-fork/simu5g-fork/images
config output-scalar-file results/omnetpp.ini-SingleCarrier-CBR-UL-#0.sca
config output-scalar-precision 17
config output-vector-file results/omnetpp.ini-SingleCarrier-CBR-UL-#0.vec
config output-vector-precision 17
config record-eventlog false
config sim-time-limit 50s
config extends "SingleCarrier, CBR-UL"
config *.carrierAggregation.numComponentCarriers 1
config *.carrierAggregation.componentCarrier[0].carrierFrequency 2GHz
config *.carrierAggregation.componentCarrier[0].numBands 6
config *.gnb.cellularNic.numCarriers 1
config *.gnb.cellularNic.channelModel[0].componentCarrierModule "\"carrierAggregation.componentCarrier[0]\""
config *.ue[*].cellularNic.numNrCarriers 1
config *.ue[*].cellularNic.nrChannelModel[0].componentCarrierModule "\"carrierAggregation.componentCarrier[0]\""
config *.server.app[*].typename CbrReceiver
config *.server.app[*].localPort 1000+ancestorIndex(0)
config *.ue[*].app[*].destAddress "\"server\""
config *.ue[*].app[*].localPort 3088+ancestorIndex(0)
config *.ue[*].app[*].destPort 1000+ancestorIndex(1)
config *.ue[*].app[*].typename CbrSender
config *.ue[*].app[*].startTime uniform(0s,0.02s)
config *.ue[*].app[*].packetSize 2000B
config sim-time-limit 50s
config network simu5g.simulations.nr.networks.SingleCell_Standalone
config **.routingRecorder.enabled false
config seed-set 0
config **.sctp.**.scalar-recording false
config **.sctp.**.vector-recording false
config **.vector-recording true
config **.mobility.constraintAreaMinZ 0m
config **.mobility.constraintAreaMaxZ 0m
config **.mobility.initFromDisplayString false
config **.eNodeBTxPower 40dBm
config **.sctp.nagleEnabled false
config **.sctp.enableHeartbeats false
config **.downlinkInterference true
config **.uplinkInterference true
config **.enableHandover true
config **.fbPeriod 10tti
config **.targetBler 0.01
config **.blerShift 5
config *.configurator.config "xmldoc(\"./demo.xml\")"
config *.gnb.mobility.initialX 300m
config *.gnb.mobility.initialY 300m
config *.numUe 10
config *.ue[*].servingNodeId 0
config *.ue[*].nrServingNodeId 1
config **.mobility.constraintAreaMaxX 700m
config **.mobility.constraintAreaMaxY 400m
config **.mobility.constraintAreaMinX 100m
config **.mobility.constraintAreaMinY 200m
config *.ue[*].mobility.typename RandomWaypointMobility
config *.ue[*].mobility.initialX uniform(100m,500m)
config *.ue[*].mobility.initialY uniform(200m,400m)
config *.ue[*].mobility.speed uniform(5mps,15mps)
config *.ue[*].numApps 1
config *.server.numApps 10
config output-scalar-file results/SingleCarrier-CBR-UL/$numUe=10-0.sca
config output-vector-file results/SingleCarrier-CBR-UL/$numUe=10-0.vec

scalar SingleCell_Standalone.server.lo[0].lo rcvdPkFromHl:count 0
scalar SingleCell_Standalone.server.lo[0].lo rcvdPkFromHl:sum(packetBytes) 0
scalar SingleCell_Standalone.server.lo[0].lo passedUpPk:count 0
scalar SingleCell_Standalone.server.lo[0].lo passedUpPk:sum(packetBytes) 0
scalar SingleCell_Standalone.server.lo[0] packetDropInterfaceDown:count 0
scalar SingleCell_Standalone.server.lo[0] packetDropInterfaceDown:sum(packetBytes) 0
scalar SingleCell_Standalone.server.lo[0] packetDropNoCarrier:count 0
scalar SingleCell_Standalone.server.lo[0] packetDropNoCarrier:sum(packetBytes) 0
scalar SingleCell_Standalone.server.ppp[0].queue queueLength:last 0
scalar SingleCell_Standalone.server.ppp[0].queue queueLength:max 0
scalar SingleCell_Standalone.server.ppp[0].queue queueLength:timeavg 0
scalar SingleCell_Standalone.server.ppp[0].queue queueBitLength:last 0
scalar SingleCell_Standalone.server.ppp[0].queue queueBitLength:max 0
scalar SingleCell_Standalone.server.ppp[0].queue queueBitLength:timeavg 0
scalar SingleCell_Standalone.server.ppp[0].queue outgoingPackets:count 0
scalar SingleCell_Standalone.server.ppp[0].queue outgoingPacketLengths:sum 0
scalar SingleCell_Standalone.server.ppp[0].queue incomingPackets:count 0
scalar SingleCell_Standalone.server.ppp[0].queue incomingPacketLengths:sum 0
scalar SingleCell_Standalone.server.ppp[0].queue droppedPacketsQueueOverflow:count 0
scalar SingleCell_Standalone.server.ppp[0].queue droppedPacketLengthsQueueOverflow:sum 0
scalar SingleCell_Standalone.server.ppp[0].ppp transmissionState:timeavg 0
scalar SingleCell_Standalone.server.ppp[0].ppp rxPkOk:count 37350
scalar SingleCell_Standalone.server.ppp[0].ppp rxPkOk:sum(packetBytes) 38281274
scalar SingleCell_Standalone.server.ppp[0].ppp txPk:count 0
scalar SingleCell_Standalone.server.ppp[0].ppp txPk:sum(packetBytes) 0
scalar SingleCell_Standalone.server.ppp[0].ppp rcvdPkFromHl:count 0
scalar SingleCell_Standalone.server.ppp[0].ppp rcvdPkFromHl:sum(packetBytes) 0
scalar SingleCell_Standalone.server.ppp[0].ppp passedUpPk:count 37350
scalar SingleCell_Standalone.server.ppp[0].ppp passedUpPk:sum(packetBytes) 38019824
scalar SingleCell_Standalone.server.ppp[0].ppp packetDropIncorrectlyReceived:count 0
scalar SingleCell_Standalone.server.ppp[0].ppp packetDropIncorrectlyReceived:sum(packetBytes) 0
scalar SingleCell_Standalone.server.ppp[0].ppp packetDropInterfaceDown:count 0
scalar SingleCell_Standalone.server.ppp[0].ppp packetDropInterfaceDown:sum(packetBytes) 0
scalar SingleCell_Standalone.server.ppp[0] packetDropInterfaceDown:count 0
scalar SingleCell_Standalone.server.ppp[0] packetDropInterfaceDown:sum(packetBytes) 0
scalar SingleCell_Standalone.server.ppp[0] packetDropNoCarrier:count 0
scalar SingleCell_Standalone.server.ppp[0] packetDropNoCarrier:sum(packetBytes) 0
scalar SingleCell_Standalone.server.ipv4.ip packetDropAddressResolutionFailed:count 0
scalar SingleCell_Standalone.server.ipv4.ip packetDropAddressResolutionFailed:sum(packetBytes) 0
scalar SingleCell_Standalone.server.ipv4.ip packetDropHopLimitReached:count 0
scalar SingleCell_Standalone.server.ipv4.ip packetDropHopLimitReached:sum(packetBytes) 0
scalar SingleCell_Standalone.server.ipv4.ip packetDropForwardingDisabled:count 0
scalar SingleCell_Standalone.server.ipv4.ip packetDropForwardingDisabled:sum(packetBytes) 0
scalar SingleCell_Standalone.server.ipv4.ip packetDropNoInterfaceFound:count 0
scalar SingleCell_Standalone.server.ipv4.ip packetDropNoInterfaceFound:sum(packetBytes) 0
scalar SingleCell_Standalone.server.ipv4.ip packetDropNoRouteFound:count 0
scalar SingleCell_Standalone.server.ipv4.ip packetDropNoRouteFound:sum(packetBytes) 0
scalar SingleCell_Standalone.server.ipv4.ip packetDropUndefined:count 0
scalar SingleCell_Standalone.server.ipv4.ip packetDropUndefined:sum(packetBytes) 0
scalar SingleCell_Standalone.server.ipv4.arp arpResolutionFailed:count 0
scalar SingleCell_Standalone.server.ipv4.arp arpResolutionCompleted:count 0
scalar SingleCell_Standalone.server.ipv4.arp arpResolutionInitiated:count 0
scalar SingleCell_Standalone.server.ipv4.arp arpReplySent:count 0
scalar SingleCell_Standalone.server.ipv4.arp arpReplySent:sum(packetBytes) 0
scalar SingleCell_Standalone.server.ipv4.arp arpRequestSent:count 0
scalar SingleCell_Standalone.server.ipv4.arp arpRequestSent:sum(packetBytes) 0
scalar SingleCell_Standalone.server.udp packetReceived:count 17827
scalar SingleCell_Standalone.server.udp packetReceived:sum(packetBytes) 35796616
scalar SingleCell_Standalone.server.udp packetSent:count 0
scalar SingleCell_Standalone.server.udp packetSent:sum(packetBytes) 0
scalar SingleCell_Standalone.server.udp passedUpPk:count 17827
scalar SingleCell_Standalone.server.udp droppedPkWrongPort:count 0
scalar SingleCell_Standalone.server.udp droppedPkBadChecksum:count 0
scalar SingleCell_Standalone.server.app[0] cbrReceivedBytes:mean 2000
scalar SingleCell_Standalone.server.app[0] cbrReceivedBytes:sum 4566000
scalar SingleCell_Standalone.server.app[0] cbrReceivedThroughput:simu5g_rateavg 91320
scalar SingleCell_Standalone.server.app[0] cbrJitter:mean -nan
scalar SingleCell_Standalone.server.app[0] cbrFrameDelay:mean 0.11574497678704912
scalar SingleCell_Standalone.server.app[0] cbrFrameLoss:mean 0
scalar SingleCell_Standalone.server.app[1] cbrReceivedBytes:mean 2000
scalar SingleCell_Standalone.server.app[1] cbrReceivedBytes:sum 3700000
scalar SingleCell_Standalone.server.app[1] cbrReceivedThroughput:simu5g_rateavg 74000
scalar SingleCell_Standalone.server.app[1] cbrJitter:mean -nan
scalar SingleCell_Standalone.server.app[1] cbrFrameDelay:mean 0.18837624865613495
scalar SingleCell_Standalone.server.app[1] cbrFrameLoss:mean 0
scalar SingleCell_Standalone.server.app[2] cbrReceivedBytes:mean 2000
scalar SingleCell_Standalone.server.app[2] cbrReceivedBytes:sum 4422000
scalar SingleCell_Standalone.server.app[2] cbrReceivedThroughput:simu5g_rateavg 88440
scalar SingleCell_Standalone.server.app[2] cbrJitter:mean -nan
scalar SingleCell_Standalone.server.app[2] cbrFrameDelay:mean 2.1652943432295304
scalar SingleCell_Standalone.server.app[2] cbrFrameLoss:mean 0
scalar SingleCell_Standalone.server.app[3] cbrReceivedBytes:mean 2000
scalar SingleCell_Standalone.server.app[3] cbrReceivedBytes:sum 474000
scalar SingleCell_Standalone.server.app[3] cbrReceivedThroughput:simu5g_rateavg 9480
scalar SingleCell_Standalone.server.app[3] cbrJitter:mean -nan
scalar SingleCell_Standalone.server.app[3] cbrFrameDelay:mean 17.444362731604095
scalar SingleCell_Standalone.server.app[3] cbrFrameLoss:mean 0
scalar SingleCell_Standalone.server.app[4] cbrReceivedBytes:mean 2000
scalar SingleCell_Standalone.server.app[4] cbrReceivedBytes:sum 4892000
scalar SingleCell_Standalone.server.app[4] cbrReceivedThroughput:simu5g_rateavg 97840
scalar SingleCell_Standalone.server.app[4] cbrJitter:mean -nan
scalar SingleCell_Standalone.server.app[4] cbrFrameDelay:mean 0.031544130247134081
scalar SingleCell_Standalone.server.app[4] cbrFrameLoss:mean 0
scalar SingleCell_Standalone.server.app[5] cbrReceivedBytes:mean 2000
scalar SingleCell_Standalone.server.app[5] cbrReceivedBytes:sum 2460000
scalar SingleCell_Standalone.server.app[5] cbrReceivedThroughput:simu5g_rateavg 49200
scalar SingleCell_Standalone.server.app[5] cbrJitter:mean -nan
scalar SingleCell_Standalone.server.app[5] cbrFrameDelay:mean 8.094589730883035
scalar SingleCell_Standalone.server.app[5] cbrFrameLoss:mean 0
scalar SingleCell_Standalone.server.app[6] cbrReceivedBytes:mean 2000
scalar SingleCell_Standalone.server.app[6] cbrReceivedBytes:sum 3500000
scalar SingleCell_Standalone.server.app[6] cbrReceivedThroughput:simu5g_rateavg 70000
scalar SingleCell_Standalone.server.app[6] cbrJitter:mean -nan
scalar SingleCell_Standalone.server.app[6] cbrFrameDelay:mean 1.7026381909782002
scalar SingleCell_Standalone.server.app[6] cbrFrameLoss:mean 0
scalar SingleCell_Standalone.server.app[7] cbrReceivedBytes:mean 2000
scalar SingleCell_Standalone.server.app[7] cbrReceivedBytes:sum 4090000
scalar SingleCell_Standalone.server.app[7] cbrReceivedThroughput:simu5g_rateavg 81800
scalar SingleCell_Standalone.server.app[7] cbrJitter:mean -nan
scalar SingleCell_Standalone.server.app[7] cbrFrameDelay:mean 3.7629979388063419
scalar SingleCell_Standalone.server.app[7] cbrFrameLoss:mean 0
scalar SingleCell_Standalone.server.app[8] cbrReceivedBytes:mean 2000
scalar SingleCell_Standalone.server.app[8] cbrReceivedBytes:sum 4752000
scalar SingleCell_Standalone.server.app[8] cbrReceivedThroughput:simu5g_rateavg 95040
scalar SingleCell_Standalone.server.app[8] cbrJitter:mean -nan
scalar SingleCell_Standalone.server.app[8] cbrFrameDelay:mean 0.091758803030616662
scalar SingleCell_Standalone.server.app[8] cbrFrameLoss:mean 0
scalar SingleCell_Standalone.server.app[9] cbrReceivedBytes:mean 2000
scalar SingleCell_Standalone.server.app[9] cbrReceivedBytes:sum 2798000
scalar SingleCell_Standalone.server.app[9] cbrReceivedThroughput:simu5g_rateavg 55960
scalar SingleCell_Standalone.server.app[9] cbrJitter:mean -nan
scalar SingleCell_Standalone.server.app[9] cbrFrameDelay:mean 3.441185347787556
scalar SingleCell_Standalone.server.app[9] cbrFrameLoss:mean 0
scalar SingleCell_Standalone.router.lo[0].lo rcvdPkFromHl:count 0
scalar SingleCell_Standalone.router.lo[0].lo rcvdPkFromHl:sum(packetBytes) 0
scalar SingleCell_Standalone.router.lo[0].lo passedUpPk:count 0
scalar SingleCell_Standalone.router.lo[0].lo passedUpPk:sum(packetBytes) 0
scalar SingleCell_Standalone.router.lo[0] packetDropInterfaceDown:count 0
scalar SingleCell_Standalone.router.lo[0] packetDropInterfaceDown:sum(packetBytes) 0
scalar SingleCell_Standalone.router.lo[0] packetDropNoCarrier:count 0
scalar SingleCell_Standalone.router.lo[0] packetDropNoCarrier:sum(packetBytes) 0
scalar SingleCell_Standalone.router.ppp[0].queue queueLength:last 0
scalar SingleCell_Standalone.router.ppp[0].queue queueLength:max 2
scalar SingleCell_Standalone.router.ppp[0].queue queueLength:timeavg 0.00010772070400000859
scalar SingleCell_Standalone.router.ppp[0].queue queueBitLength:last 0
scalar SingleCell_Standalone.router.ppp[0].queue queueBitLength:max 8768
scalar SingleCell_Standalone.router.ppp[0].queue queueBitLength:timeavg 0.47224756633599241
scalar SingleCell_Standalone.router.ppp[0].queue outgoingPackets:count 37350
scalar SingleCell_Standalone.router.ppp[0].queue outgoingPacketLengths:sum 304158592
scalar SingleCell_Standalone.router.ppp[0].queue incomingPackets:count 37350
scalar SingleCell_Standalone.router.ppp[0].queue incomingPacketLengths:sum 304158592
scalar SingleCell_Standalone.router.ppp[0].queue droppedPacketsQueueOverflow:count 0
scalar SingleCell_Standalone.router.ppp[0].queue droppedPacketLengthsQueueOverflow:sum 0
scalar SingleCell_Standalone.router.ppp[0].ppp transmissionState:timeavg 0.00061250038400010199
scalar SingleCell_Standalone.router.ppp[0].ppp rxPkOk:count 0
scalar SingleCell_Standalone.router.ppp[0].ppp rxPkOk:sum(packetBytes) 0
scalar SingleCell_Standalone.router.ppp[0].ppp txPk:count 37350
scalar SingleCell_Standalone.router.ppp[0].ppp txPk:sum(packetBytes) 38281274
scalar SingleCell_Standalone.router.ppp[0].ppp rcvdPkFromHl:count 37350
scalar SingleCell_Standalone.router.ppp[0].ppp rcvdPkFromHl:sum(packetBytes) 38019824
scalar SingleCell_Standalone.router.ppp[0].ppp passedUpPk:count 0
scalar SingleCell_Standalone.router.ppp[0].ppp passedUpPk:sum(packetBytes) 0
scalar SingleCell_Standalone.router.ppp[0].ppp packetDropIncorrectlyReceived:count 0
scalar SingleCell_Standalone.router.ppp[0].ppp packetDropIncorrectlyReceived:sum(packetBytes) 0
scalar SingleCell_Standalone.router.ppp[0].ppp packetDropInterfaceDown:count 0
scalar SingleCell_Standalone.router.ppp[0].ppp packetDropInterfaceDown:sum(packetBytes) 0
scalar SingleCell_Standalone.router.ppp[0] packetDropInterfaceDown:count 0
scalar SingleCell_Standalone.router.ppp[0] packetDropInterfaceDown:sum(packetBytes) 0
scalar SingleCell_Standalone.router.ppp[0] packetDropNoCarrier:count 0
scalar SingleCell_Standalone.router.ppp[0] packetDropNoCarrier:sum(packetBytes) 0
scalar SingleCell_Standalone.router.ppp[1].queue queueLength:last 0
scalar SingleCell_Standalone.router.ppp[1].queue queueLength:max 0
scalar SingleCell_Standalone.router.ppp[1].queue queueLength:timeavg 0
scalar SingleCell_Standalone.router.ppp[1].queue queueBitLength:last 0
scalar SingleCell_Standalone.router.ppp[1].queue queueBitLength:max 0
scalar SingleCell_Standalone.router.ppp[1].queue queueBitLength:timeavg 0
scalar SingleCell_Standalone.router.ppp[1].queue outgoingPackets:count 0
scalar SingleCell_Standalone.router.ppp[1].queue outgoingPacketLengths:sum 0
scalar SingleCell_Standalone.router.ppp[1].queue incomingPackets:count 0
scalar SingleCell_Standalone.router.ppp[1].queue incomingPacketLengths:sum 0
scalar SingleCell_Standalone.router.ppp[1].queue droppedPacketsQueueOverflow:count 0
scalar SingleCell_Standalone.router.ppp[1].queue droppedPacketLengthsQueueOverflow:sum 0
scalar SingleCell_Standalone.router.ppp[1].ppp transmissionState:timeavg 0
scalar SingleCell_Standalone.router.ppp[1].ppp rxPkOk:count 37350
scalar SingleCell_Standalone.router.ppp[1].ppp rxPkOk:sum(packetBytes) 38281274
scalar SingleCell_Standalone.router.ppp[1].ppp txPk:count 0
scalar SingleCell_Standalone.router.ppp[1].ppp txPk:sum(packetBytes) 0
scalar SingleCell_Standalone.router.ppp[1].ppp rcvdPkFromHl:count 0
scalar SingleCell_Standalone.router.ppp[1].ppp rcvdPkFromHl:sum(packetBytes) 0
scalar SingleCell_Standalone.router.ppp[1].ppp passedUpPk:count 37350
scalar SingleCell_Standalone.router.ppp[1].ppp passedUpPk:sum(packetBytes) 38019824
scalar SingleCell_Standalone.router.ppp[1].ppp packetDropIncorrectlyReceived:count 0
scalar SingleCell_Standalone.router.ppp[1].ppp packetDropIncorrectlyReceived:sum(packetBytes) 0
scalar SingleCell_Standalone.router.ppp[1].ppp packetDropInterfaceDown:count 0
scalar SingleCell_Standalone.router.ppp[1].ppp packetDropInterfaceDown:sum(packetBytes) 0
scalar SingleCell_Standalone.router.ppp[1] packetDropInterfaceDown:count 0
scalar SingleCell_Standalone.router.ppp[1] packetDropInterfaceDown:sum(packetBytes) 0
scalar SingleCell_Standalone.router.ppp[1] packetDropNoCarrier:count 0
scalar SingleCell_Standalone.router.ppp[1] packetDropNoCarrier:sum(packetBytes) 0
scalar SingleCell_Standalone.router.ipv4.ip packetDropAddressResolutionFailed:count 0
scalar SingleCell_Standalone.router.ipv4.ip packetDropAddressResolutionFailed:sum(packetBytes) 0
scalar SingleCell_Standalone.router.ipv4.ip packetDropHopLimitReached:count 0
scalar SingleCell_Standalone.router.ipv4.ip packetDropHopLimitReached:sum(packetBytes) 0
scalar SingleCell_Standalone.router.ipv4.ip packetDropForwardingDisabled:count 0
scalar SingleCell_Standalone.router.ipv4.ip packetDropForwardingDisabled:sum(packetBytes) 0
scalar SingleCell_Standalone.router.ipv4.ip packetDropNoInterfaceFound:count 0
scalar SingleCell_Standalone.router.ipv4.ip packetDropNoInterfaceFound:sum(packetBytes) 0
scalar SingleCell_Standalone.router.ipv4.ip packetDropNoRouteFound:count 0
scalar SingleCell_Standalone.router.ipv4.ip packetDropNoRouteFound:sum(packetBytes) 0
scalar SingleCell_Standalone.router.ipv4.ip packetDropUndefined:count 0
scalar SingleCell_Standalone.router.ipv4.ip packetDropUndefined:sum(packetBytes) 0
scalar SingleCell_Standalone.router.ipv4.arp arpResolutionFailed:count 0
scalar SingleCell_Standalone.router.ipv4.arp arpResolutionCompleted:count 0
scalar SingleCell_Standalone.router.ipv4.arp arpResolutionInitiated:count 0
scalar SingleCell_Standalone.router.ipv4.arp arpReplySent:count 0
scalar SingleCell_Standalone.router.ipv4.arp arpReplySent:sum(packetBytes) 0
scalar SingleCell_Standalone.router.ipv4.arp arpRequestSent:count 0
scalar SingleCell_Standalone.router.ipv4.arp arpRequestSent:sum(packetBytes) 0
scalar SingleCell_Standalone.upf.lo[0].lo rcvdPkFromHl:count 0
scalar SingleCell_Standalone.upf.lo[0].lo rcvdPkFromHl:sum(packetBytes) 0
scalar SingleCell_Standalone.upf.lo[0].lo passedUpPk:count 0
scalar SingleCell_Standalone.upf.lo[0].lo passedUpPk:sum(packetBytes) 0
scalar SingleCell_Standalone.upf.lo[0] packetDropInterfaceDown:count 0
scalar SingleCell_Standalone.upf.lo[0] packetDropInterfaceDown:sum(packetBytes) 0
scalar SingleCell_Standalone.upf.lo[0] packetDropNoCarrier:count 0
scalar SingleCell_Standalone.upf.lo[0] packetDropNoCarrier:sum(packetBytes) 0
scalar SingleCell_Standalone.upf.ppp[0].queue queueLength:last 0
scalar SingleCell_Standalone.upf.ppp[0].queue queueLength:max 0
scalar SingleCell_Standalone.upf.ppp[0].queue queueLength:timeavg 0
scalar SingleCell_Standalone.upf.ppp[0].queue queueBitLength:last 0
scalar SingleCell_Standalone.upf.ppp[0].queue queueBitLength:max 0
scalar SingleCell_Standalone.upf.ppp[0].queue queueBitLength:timeavg 0
scalar SingleCell_Standalone.upf.ppp[0].queue outgoingPackets:count 0
scalar SingleCell_Standalone.upf.ppp[0].queue outgoingPacketLengths:sum 0
scalar SingleCell_Standalone.upf.ppp[0].queue incomingPackets:count 0
scalar SingleCell_Standalone.upf.ppp[0].queue incomingPacketLengths:sum 0
scalar SingleCell_Standalone.upf.ppp[0].queue droppedPacketsQueueOverflow:count 0
scalar SingleCell_Standalone.upf.ppp[0].queue droppedPacketLengthsQueueOverflow:sum 0
scalar SingleCell_Standalone.upf.ppp[0].ppp transmissionState:timeavg 0
scalar SingleCell_Standalone.upf.ppp[0].ppp rxPkOk:count 37350
scalar SingleCell_Standalone.upf.ppp[0].ppp rxPkOk:sum(packetBytes) 39625874
scalar SingleCell_Standalone.upf.ppp[0].ppp txPk:count 0
scalar SingleCell_Standalone.upf.ppp[0].ppp txPk:sum(packetBytes) 0
scalar SingleCell_Standalone.upf.ppp[0].ppp rcvdPkFromHl:count 0
scalar SingleCell_Standalone.upf.ppp[0].ppp rcvdPkFromHl:sum(packetBytes) 0
scalar SingleCell_Standalone.upf.ppp[0].ppp passedUpPk:count 37350
scalar SingleCell_Standalone.upf.ppp[0].ppp passedUpPk:sum(packetBytes) 39364424
scalar SingleCell_Standalone.upf.ppp[0].ppp packetDropIncorrectlyReceived:count 0
scalar SingleCell_Standalone.upf.ppp[0].ppp packetDropIncorrectlyReceived:sum(packetBytes) 0
scalar SingleCell_Standalone.upf.ppp[0].ppp packetDropInterfaceDown:count 0
scalar SingleCell_Standalone.upf.ppp[0].ppp packetDropInterfaceDown:sum(packetBytes) 0
scalar SingleCell_Standalone.upf.ppp[0] packetDropInterfaceDown:count 0
scalar SingleCell_Standalone.upf.ppp[0] packetDropInterfaceDown:sum(packetBytes) 0
scalar SingleCell_Standalone.upf.ppp[0] packetDropNoCarrier:count 0
scalar SingleCell_Standalone.upf.ppp[0] packetDropNoCarrier:sum(packetBytes) 0
scalar SingleCell_Standalone.upf.ipv4.ip packetDropAddressResolutionFailed:count 0
scalar SingleCell_Standalone.upf.ipv4.ip packetDropAddressResolutionFailed:sum(packetBytes) 0
scalar SingleCell_Standalone.upf.ipv4.ip packetDropHopLimitReached:count 0
scalar SingleCell_Standalone.upf.ipv4.ip packetDropHopLimitReached:sum(packetBytes) 0
scalar SingleCell_Standalone.upf.ipv4.ip packetDropForwardingDisabled:count 0
scalar SingleCell_Standalone.upf.ipv4.ip packetDropForwardingDisabled:sum(packetBytes) 0
scalar SingleCell_Standalone.upf.ipv4.ip packetDropNoInterfaceFound:count 0
scalar SingleCell_Standalone.upf.ipv4.ip packetDropNoInterfaceFound:sum(packetBytes) 0
scalar SingleCell_Standalone.upf.ipv4.ip packetDropNoRouteFound:count 0
scalar SingleCell_Standalone.upf.ipv4.ip packetDropNoRouteFound:sum(packetBytes) 0
scalar SingleCell_Standalone.upf.ipv4.ip packetDropUndefined:count 0
scalar SingleCell_Standalone.upf.ipv4.ip packetDropUndefined:sum(packetBytes) 0
scalar SingleCell_Standalone.upf.ipv4.arp arpResolutionFailed:count 0
scalar SingleCell_Standalone.upf.ipv4.arp arpResolutionCompleted:count 0
scalar SingleCell_Standalone.upf.ipv4.arp arpResolutionInitiated:count 0
scalar SingleCell_Standalone.upf.ipv4.arp arpReplySent:count 0
scalar SingleCell_Standalone.upf.ipv4.arp arpReplySent:sum(packetBytes) 0
scalar SingleCell_Standalone.upf.ipv4.arp arpRequestSent:count 0
scalar SingleCell_Standalone.upf.ipv4.arp arpRequestSent:sum(packetBytes) 0
scalar SingleCell_Standalone.upf.udp packetReceived:count 37350
scalar SingleCell_Standalone.upf.udp packetReceived:sum(packetBytes) 38617424
scalar SingleCell_Standalone.upf.udp packetSent:count 0
scalar SingleCell_Standalone.upf.udp packetSent:sum(packetBytes) 0
scalar SingleCell_Standalone.upf.udp passedUpPk:count 37350
scalar SingleCell_Standalone.upf.udp droppedPkWrongPort:count 0
scalar SingleCell_Standalone.upf.udp droppedPkBadChecksum:count 0
scalar SingleCell_Standalone.upf.dnPpp.queue queueLength:last 0
scalar SingleCell_Standalone.upf.dnPpp.queue queueLength:max 2
scalar SingleCell_Standalone.upf.dnPpp.queue queueLength:timeavg 0.00010355046400000917
scalar SingleCell_Standalone.upf.dnPpp.queue queueBitLength:last 0
scalar SingleCell_Standalone.upf.dnPpp.queue queueBitLength:max 8768
scalar SingleCell_Standalone.upf.dnPpp.queue queueBitLength:timeavg 0.45396523417607099
scalar SingleCell_Standalone.upf.dnPpp.queue outgoingPackets:count 37350
scalar SingleCell_Standalone.upf.dnPpp.queue outgoingPacketLengths:sum 304158592
scalar SingleCell_Standalone.upf.dnPpp.queue incomingPackets:count 37350
scalar SingleCell_Standalone.upf.dnPpp.queue incomingPacketLengths:sum 304158592
scalar SingleCell_Standalone.upf.dnPpp.queue droppedPacketsQueueOverflow:count 0
scalar SingleCell_Standalone.upf.dnPpp.queue droppedPacketLengthsQueueOverflow:sum 0
scalar SingleCell_Standalone.upf.dnPpp.ppp transmissionState:timeavg 0.00061250038400010199
scalar SingleCell_Standalone.upf.dnPpp.ppp rxPkOk:count 0
scalar SingleCell_Standalone.upf.dnPpp.ppp rxPkOk:sum(packetBytes) 0
scalar SingleCell_Standalone.upf.dnPpp.ppp txPk:count 37350
scalar SingleCell_Standalone.upf.dnPpp.ppp txPk:sum(packetBytes) 38281274
scalar SingleCell_Standalone.upf.dnPpp.ppp rcvdPkFromHl:count 37350
scalar SingleCell_Standalone.upf.dnPpp.ppp rcvdPkFromHl:sum(packetBytes) 38019824
scalar SingleCell_Standalone.upf.dnPpp.ppp passedUpPk:count 0
scalar SingleCell_Standalone.upf.dnPpp.ppp passedUpPk:sum(packetBytes) 0
scalar SingleCell_Standalone.upf.dnPpp.ppp packetDropIncorrectlyReceived:count 0
scalar SingleCell_Standalone.upf.dnPpp.ppp packetDropIncorrectlyReceived:sum(packetBytes) 0
scalar SingleCell_Standalone.upf.dnPpp.ppp packetDropInterfaceDown:count 0
scalar SingleCell_Standalone.upf.dnPpp.ppp packetDropInterfaceDown:sum(packetBytes) 0
scalar SingleCell_Standalone.upf.dnPpp packetDropInterfaceDown:count 0
scalar SingleCell_Standalone.upf.dnPpp packetDropInterfaceDown:sum(packetBytes) 0
scalar SingleCell_Standalone.upf.dnPpp packetDropNoCarrier:count 0
scalar SingleCell_Standalone.upf.dnPpp packetDropNoCarrier:sum(packetBytes) 0
scalar SingleCell_Standalone.iUpf.lo[0].lo rcvdPkFromHl:count 0
scalar SingleCell_Standalone.iUpf.lo[0].lo rcvdPkFromHl:sum(packetBytes) 0
scalar SingleCell_Standalone.iUpf.lo[0].lo passedUpPk:count 0
scalar SingleCell_Standalone.iUpf.lo[0].lo passedUpPk:sum(packetBytes) 0
scalar SingleCell_Standalone.iUpf.lo[0] packetDropInterfaceDown:count 0
scalar SingleCell_Standalone.iUpf.lo[0] packetDropInterfaceDown:sum(packetBytes) 0
scalar SingleCell_Standalone.iUpf.lo[0] packetDropNoCarrier:count 0
scalar SingleCell_Standalone.iUpf.lo[0] packetDropNoCarrier:sum(packetBytes) 0
scalar SingleCell_Standalone.iUpf.ppp[0].queue queueLength:last 0
scalar SingleCell_Standalone.iUpf.ppp[0].queue queueLength:max 2
scalar SingleCell_Standalone.iUpf.ppp[0].queue queueLength:timeavg 0.00010772070400000893
scalar SingleCell_Standalone.iUpf.ppp[0].queue queueBitLength:last 0
scalar SingleCell_Standalone.iUpf.ppp[0].queue queueBitLength:max 9344
scalar SingleCell_Standalone.iUpf.ppp[0].queue queueBitLength:timeavg 0.50327112908801697
scalar SingleCell_Standalone.iUpf.ppp[0].queue outgoingPackets:count 37350
scalar SingleCell_Standalone.iUpf.ppp[0].queue outgoingPacketLengths:sum 314915392
scalar SingleCell_Standalone.iUpf.ppp[0].queue incomingPackets:count 37350
scalar SingleCell_Standalone.iUpf.ppp[0].queue incomingPacketLengths:sum 314915392
scalar SingleCell_Standalone.iUpf.ppp[0].queue droppedPacketsQueueOverflow:count 0
scalar SingleCell_Standalone.iUpf.ppp[0].queue droppedPacketLengthsQueueOverflow:sum 0
scalar SingleCell_Standalone.iUpf.ppp[0].ppp transmissionState:timeavg 0.00063401398400044623
scalar SingleCell_Standalone.iUpf.ppp[0].ppp rxPkOk:count 0
scalar SingleCell_Standalone.iUpf.ppp[0].ppp rxPkOk:sum(packetBytes) 0
scalar SingleCell_Standalone.iUpf.ppp[0].ppp txPk:count 37350
scalar SingleCell_Standalone.iUpf.ppp[0].ppp txPk:sum(packetBytes) 39625874
scalar SingleCell_Standalone.iUpf.ppp[0].ppp rcvdPkFromHl:count 37350
scalar SingleCell_Standalone.iUpf.ppp[0].ppp rcvdPkFromHl:sum(packetBytes) 39364424
scalar SingleCell_Standalone.iUpf.ppp[0].ppp passedUpPk:count 0
scalar SingleCell_Standalone.iUpf.ppp[0].ppp passedUpPk:sum(packetBytes) 0
scalar SingleCell_Standalone.iUpf.ppp[0].ppp packetDropIncorrectlyReceived:count 0
scalar SingleCell_Standalone.iUpf.ppp[0].ppp packetDropIncorrectlyReceived:sum(packetBytes) 0
scalar SingleCell_Standalone.iUpf.ppp[0].ppp packetDropInterfaceDown:count 0
scalar SingleCell_Standalone.iUpf.ppp[0].ppp packetDropInterfaceDown:sum(packetBytes) 0
scalar SingleCell_Standalone.iUpf.ppp[0] packetDropInterfaceDown:count 0
scalar SingleCell_Standalone.iUpf.ppp[0] packetDropInterfaceDown:sum(packetBytes) 0
scalar SingleCell_Standalone.iUpf.ppp[0] packetDropNoCarrier:count 0
scalar SingleCell_Standalone.iUpf.ppp[0] packetDropNoCarrier:sum(packetBytes) 0
scalar SingleCell_Standalone.iUpf.ppp[1].queue queueLength:last 0
scalar SingleCell_Standalone.iUpf.ppp[1].queue queueLength:max 0
scalar SingleCell_Standalone.iUpf.ppp[1].queue queueLength:timeavg 0
scalar SingleCell_Standalone.iUpf.ppp[1].queue queueBitLength:last 0
scalar SingleCell_Standalone.iUpf.ppp[1].queue queueBitLength:max 0
scalar SingleCell_Standalone.iUpf.ppp[1].queue queueBitLength:timeavg 0
scalar SingleCell_Standalone.iUpf.ppp[1].queue outgoingPackets:count 0
scalar SingleCell_Standalone.iUpf.ppp[1].queue outgoingPacketLengths:sum 0
scalar SingleCell_Standalone.iUpf.ppp[1].queue incomingPackets:count 0
scalar SingleCell_Standalone.iUpf.ppp[1].queue incomingPacketLengths:sum 0
scalar SingleCell_Standalone.iUpf.ppp[1].queue droppedPacketsQueueOverflow:count 0
scalar SingleCell_Standalone.iUpf.ppp[1].queue droppedPacketLengthsQueueOverflow:sum 0
scalar SingleCell_Standalone.iUpf.ppp[1].ppp transmissionState:timeavg 0
scalar SingleCell_Standalone.iUpf.ppp[1].ppp rxPkOk:count 37350
scalar SingleCell_Standalone.iUpf.ppp[1].ppp rxPkOk:sum(packetBytes) 39625874
scalar SingleCell_Standalone.iUpf.ppp[1].ppp txPk:count 0
scalar SingleCell_Standalone.iUpf.ppp[1].ppp txPk:sum(packetBytes) 0
scalar SingleCell_Standalone.iUpf.ppp[1].ppp rcvdPkFromHl:count 0
scalar SingleCell_Standalone.iUpf.ppp[1].ppp rcvdPkFromHl:sum(packetBytes) 0
scalar SingleCell_Standalone.iUpf.ppp[1].ppp passedUpPk:count 37350
scalar SingleCell_Standalone.iUpf.ppp[1].ppp passedUpPk:sum(packetBytes) 39364424
scalar SingleCell_Standalone.iUpf.ppp[1].ppp packetDropIncorrectlyReceived:count 0
scalar SingleCell_Standalone.iUpf.ppp[1].ppp packetDropIncorrectlyReceived:sum(packetBytes) 0
scalar SingleCell_Standalone.iUpf.ppp[1].ppp packetDropInterfaceDown:count 0
scalar SingleCell_Standalone.iUpf.ppp[1].ppp packetDropInterfaceDown:sum(packetBytes) 0
scalar SingleCell_Standalone.iUpf.ppp[1] packetDropInterfaceDown:count 0
scalar SingleCell_Standalone.iUpf.ppp[1] packetDropInterfaceDown:sum(packetBytes) 0
scalar SingleCell_Standalone.iUpf.ppp[1] packetDropNoCarrier:count 0
scalar SingleCell_Standalone.iUpf.ppp[1] packetDropNoCarrier:sum(packetBytes) 0
scalar SingleCell_Standalone.iUpf.ipv4.ip packetDropAddressResolutionFailed:count 0
scalar SingleCell_Standalone.iUpf.ipv4.ip packetDropAddressResolutionFailed:sum(packetBytes) 0
scalar SingleCell_Standalone.iUpf.ipv4.ip packetDropHopLimitReached:count 0
scalar SingleCell_Standalone.iUpf.ipv4.ip packetDropHopLimitReached:sum(packetBytes) 0
scalar SingleCell_Standalone.iUpf.ipv4.ip packetDropForwardingDisabled:count 0
scalar SingleCell_Standalone.iUpf.ipv4.ip packetDropForwardingDisabled:sum(packetBytes) 0
scalar SingleCell_Standalone.iUpf.ipv4.ip packetDropNoInterfaceFound:count 0
scalar SingleCell_Standalone.iUpf.ipv4.ip packetDropNoInterfaceFound:sum(packetBytes) 0
scalar SingleCell_Standalone.iUpf.ipv4.ip packetDropNoRouteFound:count 0
scalar SingleCell_Standalone.iUpf.ipv4.ip packetDropNoRouteFound:sum(packetBytes) 0
scalar SingleCell_Standalone.iUpf.ipv4.ip packetDropUndefined:count 0
scalar SingleCell_Standalone.iUpf.ipv4.ip packetDropUndefined:sum(packetBytes) 0
scalar SingleCell_Standalone.iUpf.ipv4.arp arpResolutionFailed:count 0
scalar SingleCell_Standalone.iUpf.ipv4.arp arpResolutionCompleted:count 0
scalar SingleCell_Standalone.iUpf.ipv4.arp arpResolutionInitiated:count 0
scalar SingleCell_Standalone.iUpf.ipv4.arp arpReplySent:count 0
scalar SingleCell_Standalone.iUpf.ipv4.arp arpReplySent:sum(packetBytes) 0
scalar SingleCell_Standalone.iUpf.ipv4.arp arpRequestSent:count 0
scalar SingleCell_Standalone.iUpf.ipv4.arp arpRequestSent:sum(packetBytes) 0
scalar SingleCell_Standalone.iUpf.udp packetReceived:count 0
scalar SingleCell_Standalone.iUpf.udp packetReceived:sum(packetBytes) 0
scalar SingleCell_Standalone.iUpf.udp packetSent:count 0
scalar SingleCell_Standalone.iUpf.udp packetSent:sum(packetBytes) 0
scalar SingleCell_Standalone.iUpf.udp passedUpPk:count 0
scalar SingleCell_Standalone.iUpf.udp droppedPkWrongPort:count 0
scalar SingleCell_Standalone.iUpf.udp droppedPkBadChecksum:count 0
scalar SingleCell_Standalone.iUpf.dnPpp.queue queueLength:last 0
scalar SingleCell_Standalone.iUpf.dnPpp.queue queueLength:max 0
scalar SingleCell_Standalone.iUpf.dnPpp.queue queueLength:timeavg 0
scalar SingleCell_Standalone.iUpf.dnPpp.queue queueBitLength:last 0
scalar SingleCell_Standalone.iUpf.dnPpp.queue queueBitLength:max 0
scalar SingleCell_Standalone.iUpf.dnPpp.queue queueBitLength:timeavg 0
scalar SingleCell_Standalone.iUpf.dnPpp.queue outgoingPackets:count 0
scalar SingleCell_Standalone.iUpf.dnPpp.queue outgoingPacketLengths:sum 0
scalar SingleCell_Standalone.iUpf.dnPpp.queue incomingPackets:count 0
scalar SingleCell_Standalone.iUpf.dnPpp.queue incomingPacketLengths:sum 0
scalar SingleCell_Standalone.iUpf.dnPpp.queue droppedPacketsQueueOverflow:count 0
scalar SingleCell_Standalone.iUpf.dnPpp.queue droppedPacketLengthsQueueOverflow:sum 0
scalar SingleCell_Standalone.iUpf.dnPpp.ppp transmissionState:timeavg 0
scalar SingleCell_Standalone.iUpf.dnPpp.ppp rxPkOk:count 0
scalar SingleCell_Standalone.iUpf.dnPpp.ppp rxPkOk:sum(packetBytes) 0
scalar SingleCell_Standalone.iUpf.dnPpp.ppp txPk:count 0
scalar SingleCell_Standalone.iUpf.dnPpp.ppp txPk:sum(packetBytes) 0
scalar SingleCell_Standalone.iUpf.dnPpp.ppp rcvdPkFromHl:count 0
scalar SingleCell_Standalone.iUpf.dnPpp.ppp rcvdPkFromHl:sum(packetBytes) 0
scalar SingleCell_Standalone.iUpf.dnPpp.ppp passedUpPk:count 0
scalar SingleCell_Standalone.iUpf.dnPpp.ppp passedUpPk:sum(packetBytes) 0
scalar SingleCell_Standalone.iUpf.dnPpp.ppp packetDropIncorrectlyReceived:count 0
scalar SingleCell_Standalone.iUpf.dnPpp.ppp packetDropIncorrectlyReceived:sum(packetBytes) 0
scalar SingleCell_Standalone.iUpf.dnPpp.ppp packetDropInterfaceDown:count 0
scalar SingleCell_Standalone.iUpf.dnPpp.ppp packetDropInterfaceDown:sum(packetBytes) 0
scalar SingleCell_Standalone.iUpf.dnPpp packetDropInterfaceDown:count 0
scalar SingleCell_Standalone.iUpf.dnPpp packetDropInterfaceDown:sum(packetBytes) 0
scalar SingleCell_Standalone.iUpf.dnPpp packetDropNoCarrier:count 0
scalar SingleCell_Standalone.iUpf.dnPpp packetDropNoCarrier:sum(packetBytes) 0
scalar SingleCell_Standalone.gnb.cellularNic.rlcMux rlcCellThroughputD2D:simu5g_rateavg -nan
scalar SingleCell_Standalone.gnb.cellularNic.rlcMux rlcPduThroughputD2D:simu5g_rateavg -nan
scalar SingleCell_Standalone.gnb.cellularNic.rlcMux rlcPduDelayD2D:mean -nan
scalar SingleCell_Standalone.gnb.cellularNic.rlcMux rlcThroughputD2D:simu5g_rateavg -nan
scalar SingleCell_Standalone.gnb.cellularNic.rlcMux rlcDelayD2D:mean -nan
scalar SingleCell_Standalone.gnb.cellularNic.rlcMux rlcCellThroughputUl:simu5g_rateavg 803856.77847796259
scalar SingleCell_Standalone.gnb.cellularNic.rlcMux rlcCellThroughputDl:simu5g_rateavg -nan
scalar SingleCell_Standalone.gnb.cellularNic.rlcMux rlcPduThroughputUl:simu5g_rateavg -nan
scalar SingleCell_Standalone.gnb.cellularNic.rlcMux rlcPduThroughputDl:simu5g_rateavg -nan
scalar SingleCell_Standalone.gnb.cellularNic.rlcMux rlcPduDelayUl:mean -nan
scalar SingleCell_Standalone.gnb.cellularNic.rlcMux rlcPduDelayDl:mean -nan
scalar SingleCell_Standalone.gnb.cellularNic.rlcMux rlcThroughputUl:simu5g_rateavg -nan
scalar SingleCell_Standalone.gnb.cellularNic.rlcMux rlcThroughputDl:simu5g_rateavg -nan
scalar SingleCell_Standalone.gnb.cellularNic.rlcMux rlcDelayUl:mean -nan
scalar SingleCell_Standalone.gnb.cellularNic.rlcMux rlcDelayDl:mean -nan
scalar SingleCell_Standalone.gnb.cellularNic.rlcMux sentPacketToLowerLayer:count 0
scalar SingleCell_Standalone.gnb.cellularNic.rlcMux sentPacketToLowerLayer:sum(packetBytes) 0
scalar SingleCell_Standalone.gnb.cellularNic.rlcMux receivedPacketFromLowerLayer:count 78489
scalar SingleCell_Standalone.gnb.cellularNic.rlcMux receivedPacketFromLowerLayer:sum(packetBytes) 40265936
scalar SingleCell_Standalone.gnb.cellularNic.mac avgServedBlocksUl:mean 5.9988200000000003
scalar SingleCell_Standalone.gnb.cellularNic.mac avgServedBlocksDl:mean 0
scalar SingleCell_Standalone.gnb.cellularNic.mac macCellPacketLossD2D:mean -nan
scalar SingleCell_Standalone.gnb.cellularNic.mac macCellThroughputD2D:simu5g_rateavg -nan
scalar SingleCell_Standalone.gnb.cellularNic.mac harqTxAttemptsUl:mean -nan
scalar SingleCell_Standalone.gnb.cellularNic.mac harqTxAttemptsDl:mean -nan
scalar SingleCell_Standalone.gnb.cellularNic.mac harqErrorRate_4th_Ul:mean -nan
scalar SingleCell_Standalone.gnb.cellularNic.mac harqErrorRate_4th_Dl:mean -nan
scalar SingleCell_Standalone.gnb.cellularNic.mac harqErrorRate_3rd_Ul:mean -nan
scalar SingleCell_Standalone.gnb.cellularNic.mac harqErrorRate_3rd_Dl:mean -nan
scalar SingleCell_Standalone.gnb.cellularNic.mac harqErrorRate_2nd_Ul:mean -nan
scalar SingleCell_Standalone.gnb.cellularNic.mac harqErrorRate_2nd_Dl:mean -nan
scalar SingleCell_Standalone.gnb.cellularNic.mac harqErrorRate_1st_Ul:mean -nan
scalar SingleCell_Standalone.gnb.cellularNic.mac harqErrorRate_1st_Dl:mean -nan
scalar SingleCell_Standalone.gnb.cellularNic.mac harqErrorRateUl:mean -nan
scalar SingleCell_Standalone.gnb.cellularNic.mac harqErrorRateDl:mean -nan
scalar SingleCell_Standalone.gnb.cellularNic.mac macCellPacketLossUl:mean 0
scalar SingleCell_Standalone.gnb.cellularNic.mac macCellPacketLossDl:mean -nan
scalar SingleCell_Standalone.gnb.cellularNic.mac macPacketLossUl:mean -nan
scalar SingleCell_Standalone.gnb.cellularNic.mac macPacketLossDl:mean -nan
scalar SingleCell_Standalone.gnb.cellularNic.mac macThroughputUl:simu5g_rateavg -nan
scalar SingleCell_Standalone.gnb.cellularNic.mac macThroughputDl:simu5g_rateavg -nan
scalar SingleCell_Standalone.gnb.cellularNic.mac macDelayUl:mean -nan
scalar SingleCell_Standalone.gnb.cellularNic.mac macDelayDl:mean -nan
scalar SingleCell_Standalone.gnb.cellularNic.mac macCellThroughputUl:simu5g_rateavg 830802.37453586434
scalar SingleCell_Standalone.gnb.cellularNic.mac macCellThroughputDl:simu5g_rateavg -nan
scalar SingleCell_Standalone.gnb.cellularNic.mac sentPacketToLowerLayer:count 174520
scalar SingleCell_Standalone.gnb.cellularNic.mac sentPacketToLowerLayer:sum(packetBytes) 174520
scalar SingleCell_Standalone.gnb.cellularNic.mac sentPacketToUpperLayer:count 78489
scalar SingleCell_Standalone.gnb.cellularNic.mac sentPacketToUpperLayer:sum(packetBytes) 40265936
scalar SingleCell_Standalone.gnb.cellularNic.mac receivedPacketFromLowerLayer:count 143048
scalar SingleCell_Standalone.gnb.cellularNic.mac receivedPacketFromLowerLayer:sum(packetBytes) 41175872
scalar SingleCell_Standalone.gnb.cellularNic.mac receivedPacketFromUpperLayer:count 0
scalar SingleCell_Standalone.gnb.cellularNic.mac receivedPacketFromUpperLayer:sum(packetBytes) 0
scalar SingleCell_Standalone.gnb.cellularNic.mac macBufferOverFlowD2D:mean -nan
scalar SingleCell_Standalone.gnb.cellularNic.mac macBufferOverFlowUl:mean -nan
scalar SingleCell_Standalone.gnb.cellularNic.mac macBufferOverFlowDl:mean -nan
scalar SingleCell_Standalone.gnb.cellularNic.channelModel[0] measuredSinrUl:mean -nan
scalar SingleCell_Standalone.gnb.cellularNic.channelModel[0] measuredSinrDl:mean -nan
scalar SingleCell_Standalone.gnb.cellularNic.channelModel[0] rcvdSinrD2D:mean -nan
scalar SingleCell_Standalone.gnb.cellularNic.channelModel[0] rcvdSinrUl:mean -nan
scalar SingleCell_Standalone.gnb.cellularNic.channelModel[0] rcvdSinrDl:mean -nan
scalar SingleCell_Standalone.gnb.cellularNic packetDropInterfaceDown:count 0
scalar SingleCell_Standalone.gnb.cellularNic packetDropInterfaceDown:sum(packetBytes) 0
scalar SingleCell_Standalone.gnb.cellularNic packetDropNoCarrier:count 0
scalar SingleCell_Standalone.gnb.cellularNic packetDropNoCarrier:sum(packetBytes) 0
scalar SingleCell_Standalone.gnb.pppIf.queue queueLength:last 0
scalar SingleCell_Standalone.gnb.pppIf.queue queueLength:max 15
scalar SingleCell_Standalone.gnb.pppIf.queue queueLength:timeavg 0.00059491163200002441
scalar SingleCell_Standalone.gnb.pppIf.queue queueBitLength:last 0
scalar SingleCell_Standalone.gnb.pppIf.queue queueBitLength:max 123392
scalar SingleCell_Standalone.gnb.pppIf.queue queueBitLength:timeavg 4.4695368417281225
scalar SingleCell_Standalone.gnb.pppIf.queue outgoingPackets:count 37351
scalar SingleCell_Standalone.gnb.pppIf.queue outgoingPacketLengths:sum 314920064
scalar SingleCell_Standalone.gnb.pppIf.queue incomingPackets:count 37351
scalar SingleCell_Standalone.gnb.pppIf.queue incomingPacketLengths:sum 314920064
scalar SingleCell_Standalone.gnb.pppIf.queue droppedPacketsQueueOverflow:count 0
scalar SingleCell_Standalone.gnb.pppIf.queue droppedPacketLengthsQueueOverflow:sum 0
scalar SingleCell_Standalone.gnb.pppIf.ppp transmissionState:timeavg 0.00063401398400044623
scalar SingleCell_Standalone.gnb.pppIf.ppp rxPkOk:count 0
scalar SingleCell_Standalone.gnb.pppIf.ppp rxPkOk:sum(packetBytes) 0
scalar SingleCell_Standalone.gnb.pppIf.ppp txPk:count 37351
scalar SingleCell_Standalone.gnb.pppIf.ppp txPk:sum(packetBytes) 39626465
scalar SingleCell_Standalone.gnb.pppIf.ppp rcvdPkFromHl:count 37351
scalar SingleCell_Standalone.gnb.pppIf.ppp rcvdPkFromHl:sum(packetBytes) 39365008
scalar SingleCell_Standalone.gnb.pppIf.ppp passedUpPk:count 0
scalar SingleCell_Standalone.gnb.pppIf.ppp passedUpPk:sum(packetBytes) 0
scalar SingleCell_Standalone.gnb.pppIf.ppp packetDropIncorrectlyReceived:count 0
scalar SingleCell_Standalone.gnb.pppIf.ppp packetDropIncorrectlyReceived:sum(packetBytes) 0
scalar SingleCell_Standalone.gnb.pppIf.ppp packetDropInterfaceDown:count 0
scalar SingleCell_Standalone.gnb.pppIf.ppp packetDropInterfaceDown:sum(packetBytes) 0
scalar SingleCell_Standalone.gnb.pppIf packetDropInterfaceDown:count 0
scalar SingleCell_Standalone.gnb.pppIf packetDropInterfaceDown:sum(packetBytes) 0
scalar SingleCell_Standalone.gnb.pppIf packetDropNoCarrier:count 0
scalar SingleCell_Standalone.gnb.pppIf packetDropNoCarrier:sum(packetBytes) 0
scalar SingleCell_Standalone.gnb.pppMEHostIf.queue queueLength:last 0
scalar SingleCell_Standalone.gnb.pppMEHostIf.queue queueLength:max 0
scalar SingleCell_Standalone.gnb.pppMEHostIf.queue queueLength:timeavg 0
scalar SingleCell_Standalone.gnb.pppMEHostIf.queue queueBitLength:last 0
scalar SingleCell_Standalone.gnb.pppMEHostIf.queue queueBitLength:max 0
scalar SingleCell_Standalone.gnb.pppMEHostIf.queue queueBitLength:timeavg 0
scalar SingleCell_Standalone.gnb.pppMEHostIf.queue outgoingPackets:count 0
scalar SingleCell_Standalone.gnb.pppMEHostIf.queue outgoingPacketLengths:sum 0
scalar SingleCell_Standalone.gnb.pppMEHostIf.queue incomingPackets:count 0
scalar SingleCell_Standalone.gnb.pppMEHostIf.queue incomingPacketLengths:sum 0
scalar SingleCell_Standalone.gnb.pppMEHostIf.queue droppedPacketsQueueOverflow:count 0
scalar SingleCell_Standalone.gnb.pppMEHostIf.queue droppedPacketLengthsQueueOverflow:sum 0
scalar SingleCell_Standalone.gnb.pppMEHostIf.ppp transmissionState:timeavg 0
scalar SingleCell_Standalone.gnb.pppMEHostIf.ppp rxPkOk:count 0
scalar SingleCell_Standalone.gnb.pppMEHostIf.ppp rxPkOk:sum(packetBytes) 0
scalar SingleCell_Standalone.gnb.pppMEHostIf.ppp txPk:count 0
scalar SingleCell_Standalone.gnb.pppMEHostIf.ppp txPk:sum(packetBytes) 0
scalar SingleCell_Standalone.gnb.pppMEHostIf.ppp rcvdPkFromHl:count 0
scalar SingleCell_Standalone.gnb.pppMEHostIf.ppp rcvdPkFromHl:sum(packetBytes) 0
scalar SingleCell_Standalone.gnb.pppMEHostIf.ppp passedUpPk:count 0
scalar SingleCell_Standalone.gnb.pppMEHostIf.ppp passedUpPk:sum(packetBytes) 0
scalar SingleCell_Standalone.gnb.pppMEHostIf.ppp packetDropIncorrectlyReceived:count 0
scalar SingleCell_Standalone.gnb.pppMEHostIf.ppp packetDropIncorrectlyReceived:sum(packetBytes) 0
scalar SingleCell_Standalone.gnb.pppMEHostIf.ppp packetDropInterfaceDown:count 0
scalar SingleCell_Standalone.gnb.pppMEHostIf.ppp packetDropInterfaceDown:sum(packetBytes) 0
scalar SingleCell_Standalone.gnb.pppMEHostIf packetDropInterfaceDown:count 0
scalar SingleCell_Standalone.gnb.pppMEHostIf packetDropInterfaceDown:sum(packetBytes) 0
scalar SingleCell_Standalone.gnb.pppMEHostIf packetDropNoCarrier:count 0
scalar SingleCell_Standalone.gnb.pppMEHostIf packetDropNoCarrier:sum(packetBytes) 0
scalar SingleCell_Standalone.gnb.ipv4.ip packetDropAddressResolutionFailed:count 0
scalar SingleCell_Standalone.gnb.ipv4.ip packetDropAddressResolutionFailed:sum(packetBytes) 0
scalar SingleCell_Standalone.gnb.ipv4.ip packetDropHopLimitReached:count 0
scalar SingleCell_Standalone.gnb.ipv4.ip packetDropHopLimitReached:sum(packetBytes) 0
scalar SingleCell_Standalone.gnb.ipv4.ip packetDropForwardingDisabled:count 0
scalar SingleCell_Standalone.gnb.ipv4.ip packetDropForwardingDisabled:sum(packetBytes) 0
scalar SingleCell_Standalone.gnb.ipv4.ip packetDropNoInterfaceFound:count 0
scalar SingleCell_Standalone.gnb.ipv4.ip packetDropNoInterfaceFound:sum(packetBytes) 0
scalar SingleCell_Standalone.gnb.ipv4.ip packetDropNoRouteFound:count 0
scalar SingleCell_Standalone.gnb.ipv4.ip packetDropNoRouteFound:sum(packetBytes) 0
scalar SingleCell_Standalone.gnb.ipv4.ip packetDropUndefined:count 0
scalar SingleCell_Standalone.gnb.ipv4.ip packetDropUndefined:sum(packetBytes) 0
scalar SingleCell_Standalone.gnb.ipv4.arp arpResolutionFailed:count 0
scalar SingleCell_Standalone.gnb.ipv4.arp arpResolutionCompleted:count 0
scalar SingleCell_Standalone.gnb.ipv4.arp arpResolutionInitiated:count 0
scalar SingleCell_Standalone.gnb.ipv4.arp arpReplySent:count 0
scalar SingleCell_Standalone.gnb.ipv4.arp arpReplySent:sum(packetBytes) 0
scalar SingleCell_Standalone.gnb.ipv4.arp arpRequestSent:count 0
scalar SingleCell_Standalone.gnb.ipv4.arp arpRequestSent:sum(packetBytes) 0
scalar SingleCell_Standalone.gnb.udp packetReceived:count 0
scalar SingleCell_Standalone.gnb.udp packetReceived:sum(packetBytes) 0
scalar SingleCell_Standalone.gnb.udp packetSent:count 37351
scalar SingleCell_Standalone.gnb.udp packetSent:sum(packetBytes) 38617988
scalar SingleCell_Standalone.gnb.udp passedUpPk:count 0
scalar SingleCell_Standalone.gnb.udp droppedPkWrongPort:count 0
scalar SingleCell_Standalone.gnb.udp droppedPkBadChecksum:count 0
scalar SingleCell_Standalone.ue[0].lo[0].lo rcvdPkFromHl:count 0
scalar SingleCell_Standalone.ue[0].lo[0].lo rcvdPkFromHl:sum(packetBytes) 0
scalar SingleCell_Standalone.ue[0].lo[0].lo passedUpPk:count 0
scalar SingleCell_Standalone.ue[0].lo[0].lo passedUpPk:sum(packetBytes) 0
scalar SingleCell_Standalone.ue[0].lo[0] packetDropInterfaceDown:count 0
scalar SingleCell_Standalone.ue[0].lo[0] packetDropInterfaceDown:sum(packetBytes) 0
scalar SingleCell_Standalone.ue[0].lo[0] packetDropNoCarrier:count 0
scalar SingleCell_Standalone.ue[0].lo[0] packetDropNoCarrier:sum(packetBytes) 0
scalar SingleCell_Standalone.ue[0].cellularNic.rlcMux rlcCellThroughputD2D:simu5g_rateavg -nan
scalar SingleCell_Standalone.ue[0].cellularNic.rlcMux rlcPduThroughputD2D:simu5g_rateavg -nan
scalar SingleCell_Standalone.ue[0].cellularNic.rlcMux rlcPduDelayD2D:mean -nan
scalar SingleCell_Standalone.ue[0].cellularNic.rlcMux rlcThroughputD2D:simu5g_rateavg -nan
scalar SingleCell_Standalone.ue[0].cellularNic.rlcMux rlcDelayD2D:mean -nan
scalar SingleCell_Standalone.ue[0].cellularNic.rlcMux rlcCellThroughputUl:simu5g_rateavg -nan
scalar SingleCell_Standalone.ue[0].cellularNic.rlcMux rlcCellThroughputDl:simu5g_rateavg -nan
scalar SingleCell_Standalone.ue[0].cellularNic.rlcMux rlcPduThroughputUl:simu5g_rateavg -nan
scalar SingleCell_Standalone.ue[0].cellularNic.rlcMux rlcPduThroughputDl:simu5g_rateavg -nan
scalar SingleCell_Standalone.ue[0].cellularNic.rlcMux rlcPduDelayUl:mean -nan
scalar SingleCell_Standalone.ue[0].cellularNic.rlcMux rlcPduDelayDl:mean -nan
scalar SingleCell_Standalone.ue[0].cellularNic.rlcMux rlcThroughputUl:simu5g_rateavg -nan
scalar SingleCell_Standalone.ue[0].cellularNic.rlcMux rlcThroughputDl:simu5g_rateavg -nan
scalar SingleCell_Standalone.ue[0].cellularNic.rlcMux rlcDelayUl:mean -nan
scalar SingleCell_Standalone.ue[0].cellularNic.rlcMux rlcDelayDl:mean -nan
scalar SingleCell_Standalone.ue[0].cellularNic.rlcMux sentPacketToLowerLayer:count 0
scalar SingleCell_Standalone.ue[0].cellularNic.rlcMux sentPacketToLowerLayer:sum(packetBytes) 0
scalar SingleCell_Standalone.ue[0].cellularNic.rlcMux receivedPacketFromLowerLayer:count 0
scalar SingleCell_Standalone.ue[0].cellularNic.rlcMux receivedPacketFromLowerLayer:sum(packetBytes) 0
scalar SingleCell_Standalone.ue[0].cellularNic.mac harqErrorRate_4th_D2D:mean -nan
scalar SingleCell_Standalone.ue[0].cellularNic.mac harqErrorRate_3rd_D2D:mean -nan
scalar SingleCell_Standalone.ue[0].cellularNic.mac harqErrorRate_2nd_D2D:mean -nan
scalar SingleCell_Standalone.ue[0].cellularNic.mac harqErrorRate_1st_D2D:mean -nan
scalar SingleCell_Standalone.ue[0].cellularNic.mac harqErrorRateD2D:mean -nan
scalar SingleCell_Standalone.ue[0].cellularNic.mac macPacketLossD2D:mean -nan
scalar SingleCell_Standalone.ue[0].cellularNic.mac macDelayD2D:mean -nan
scalar SingleCell_Standalone.ue[0].cellularNic.mac macThroughputD2D:simu5g_rateavg -nan
scalar SingleCell_Standalone.ue[0].cellularNic.mac harqTxAttemptsUl:mean -nan
scalar SingleCell_Standalone.ue[0].cellularNic.mac harqTxAttemptsDl:mean -nan
scalar SingleCell_Standalone.ue[0].cellularNic.mac harqErrorRate_4th_Ul:mean -nan
scalar SingleCell_Standalone.ue[0].cellularNic.mac harqErrorRate_4th_Dl:mean -nan
scalar SingleCell_Standalone.ue[0].cellularNic.mac harqErrorRate_3rd_Ul:mean -nan
scalar SingleCell_Standalone.ue[0].cellularNic.mac harqErrorRate_3rd_Dl:mean -nan
scalar SingleCell_Standalone.ue[0].cellularNic.mac harqErrorRate_2nd_Ul:mean -nan
scalar SingleCell_Standalone.ue[0].cellularNic.mac harqErrorRate_2nd_Dl:mean -nan
scalar SingleCell_Standalone.ue[0].cellularNic.mac harqErrorRate_1st_Ul:mean -nan
scalar SingleCell_Standalone.ue[0].cellularNic.mac harqErrorRate_1st_Dl:mean -nan
scalar SingleCell_Standalone.ue[0].cellularNic.mac harqErrorRateUl:mean -nan
scalar SingleCell_Standalone.ue[0].cellularNic.mac harqErrorRateDl:mean -nan
scalar SingleCell_Standalone.ue[0].cellularNic.mac macCellPacketLossUl:mean -nan
scalar SingleCell_Standalone.ue[0].cellularNic.mac macCellPacketLossDl:mean -nan
scalar SingleCell_Standalone.ue[0].cellularNic.mac macPacketLossUl:mean -nan
scalar SingleCell_Standalone.ue[0].cellularNic.mac macPacketLossDl:mean -nan
scalar SingleCell_Standalone.ue[0].cellularNic.mac macThroughputUl:simu5g_rateavg -nan
scalar SingleCell_Standalone.ue[0].cellularNic.mac macThroughputDl:simu5g_rateavg -nan
scalar SingleCell_Standalone.ue[0].cellularNic.mac macDelayUl:mean -nan
scalar SingleCell_Standalone.ue[0].cellularNic.mac macDelayDl:mean -nan
scalar SingleCell_Standalone.ue[0].cellularNic.mac macCellThroughputUl:simu5g_rateavg -nan
scalar SingleCell_Standalone.ue[0].cellularNic.mac macCellThroughputDl:simu5g_rateavg -nan
scalar SingleCell_Standalone.ue[0].cellularNic.mac rcvdD2DModeSwitchNotification:count 0
scalar SingleCell_Standalone.ue[0].cellularNic.mac sentPacketToLowerLayer:count 0
scalar SingleCell_Standalone.ue[0].cellularNic.mac sentPacketToLowerLayer:sum(packetBytes) 0
scalar SingleCell_Standalone.ue[0].cellularNic.mac sentPacketToUpperLayer:count 0
scalar SingleCell_Standalone.ue[0].cellularNic.mac sentPacketToUpperLayer:sum(packetBytes) 0
scalar SingleCell_Standalone.ue[0].cellularNic.mac receivedPacketFromLowerLayer:count 0
scalar SingleCell_Standalone.ue[0].cellularNic.mac receivedPacketFromLowerLayer:sum(packetBytes) 0
scalar SingleCell_Standalone.ue[0].cellularNic.mac receivedPacketFromUpperLayer:count 0
scalar SingleCell_Standalone.ue[0].cellularNic.mac receivedPacketFromUpperLayer:sum(packetBytes) 0
scalar SingleCell_Standalone.ue[0].cellularNic.mac macBufferOverFlowD2D:mean -nan
scalar SingleCell_Standalone.ue[0].cellularNic.mac macBufferOverFlowUl:mean -nan
scalar SingleCell_Standalone.ue[0].cellularNic.mac macBufferOverFlowDl:mean -nan
scalar SingleCell_Standalone.ue[0].cellularNic.phy distance:mean -nan
scalar SingleCell_Standalone.ue[0].cellularNic.phy averageCqiD2D:mean -nan
scalar SingleCell_Standalone.ue[0].cellularNic.phy averageCqiUl:mean -nan
scalar SingleCell_Standalone.ue[0].cellularNic.phy averageCqiUl:count 0
scalar SingleCell_Standalone.ue[0].cellularNic.phy averageCqiDl:mean -nan
scalar SingleCell_Standalone.ue[0].cellularNic.phy averageCqiDl:count 0
scalar SingleCell_Standalone.ue[0].cellularNic.channelModel[0] measuredSinrUl:mean -nan
scalar SingleCell_Standalone.ue[0].cellularNic.channelModel[0] measuredSinrDl:mean -nan
scalar SingleCell_Standalone.ue[0].cellularNic.channelModel[0] rcvdSinrD2D:mean -nan
scalar SingleCell_Standalone.ue[0].cellularNic.channelModel[0] rcvdSinrUl:mean -nan
scalar SingleCell_Standalone.ue[0].cellularNic.channelModel[0] rcvdSinrDl:mean -nan
scalar SingleCell_Standalone.ue[0].cellularNic.nrRlcMux rlcCellThroughputD2D:simu5g_rateavg -nan
scalar SingleCell_Standalone.ue[0].cellularNic.nrRlcMux rlcPduThroughputD2D:simu5g_rateavg -nan
scalar SingleCell_Standalone.ue[0].cellularNic.nrRlcMux rlcPduDelayD2D:mean -nan
scalar SingleCell_Standalone.ue[0].cellularNic.nrRlcMux rlcThroughputD2D:simu5g_rateavg -nan
scalar SingleCell_Standalone.ue[0].cellularNic.nrRlcMux rlcDelayD2D:mean -nan
scalar SingleCell_Standalone.ue[0].cellularNic.nrRlcMux rlcCellThroughputUl:simu5g_rateavg -nan
scalar SingleCell_Standalone.ue[0].cellularNic.nrRlcMux rlcCellThroughputDl:simu5g_rateavg -nan
scalar SingleCell_Standalone.ue[0].cellularNic.nrRlcMux rlcPduThroughputUl:simu5g_rateavg 0
scalar SingleCell_Standalone.ue[0].cellularNic.nrRlcMux rlcPduThroughputDl:simu5g_rateavg -nan
scalar SingleCell_Standalone.ue[0].cellularNic.nrRlcMux rlcPduDelayUl:mean 0.0040488669315864043
scalar SingleCell_Standalone.ue[0].cellularNic.nrRlcMux rlcPduDelayDl:mean -nan
scalar SingleCell_Standalone.ue[0].cellularNic.nrRlcMux rlcThroughputUl:simu5g_rateavg 98182.953530914558
scalar SingleCell_Standalone.ue[0].cellularNic.nrRlcMux rlcThroughputDl:simu5g_rateavg -nan
scalar SingleCell_Standalone.ue[0].cellularNic.nrRlcMux rlcDelayUl:mean 0.11852584918542504
scalar SingleCell_Standalone.ue[0].cellularNic.nrRlcMux rlcDelayDl:mean -nan
scalar SingleCell_Standalone.ue[0].cellularNic.nrRlcMux sentPacketToLowerLayer:count 14465
scalar SingleCell_Standalone.ue[0].cellularNic.nrRlcMux sentPacketToLowerLayer:sum(packetBytes) 10207782
scalar SingleCell_Standalone.ue[0].cellularNic.nrRlcMux receivedPacketFromLowerLayer:count 0
scalar SingleCell_Standalone.ue[0].cellularNic.nrRlcMux receivedPacketFromLowerLayer:sum(packetBytes) 0
scalar SingleCell_Standalone.ue[0].cellularNic.nrMac harqErrorRate_4th_D2D:mean -nan
scalar SingleCell_Standalone.ue[0].cellularNic.nrMac harqErrorRate_3rd_D2D:mean -nan
scalar SingleCell_Standalone.ue[0].cellularNic.nrMac harqErrorRate_2nd_D2D:mean -nan
scalar SingleCell_Standalone.ue[0].cellularNic.nrMac harqErrorRate_1st_D2D:mean -nan
scalar SingleCell_Standalone.ue[0].cellularNic.nrMac harqErrorRateD2D:mean -nan
scalar SingleCell_Standalone.ue[0].cellularNic.nrMac macPacketLossD2D:mean -nan
scalar SingleCell_Standalone.ue[0].cellularNic.nrMac macDelayD2D:mean -nan
scalar SingleCell_Standalone.ue[0].cellularNic.nrMac macThroughputD2D:simu5g_rateavg -nan
scalar SingleCell_Standalone.ue[0].cellularNic.nrMac harqTxAttemptsUl:mean 1.0056928034371644
scalar SingleCell_Standalone.ue[0].cellularNic.nrMac harqTxAttemptsDl:mean -nan
scalar SingleCell_Standalone.ue[0].cellularNic.nrMac harqErrorRate_4th_Ul:mean -nan
scalar SingleCell_Standalone.ue[0].cellularNic.nrMac harqErrorRate_4th_Dl:mean -nan
scalar SingleCell_Standalone.ue[0].cellularNic.nrMac harqErrorRate_3rd_Ul:mean 0
scalar SingleCell_Standalone.ue[0].cellularNic.nrMac harqErrorRate_3rd_Dl:mean -nan
scalar SingleCell_Standalone.ue[0].cellularNic.nrMac harqErrorRate_2nd_Ul:mean 0.019230769230769232
scalar SingleCell_Standalone.ue[0].cellularNic.nrMac harqErrorRate_2nd_Dl:mean -nan
scalar SingleCell_Standalone.ue[0].cellularNic.nrMac harqErrorRate_1st_Ul:mean 0.0055853920515574647
scalar SingleCell_Standalone.ue[0].cellularNic.nrMac harqErrorRate_1st_Dl:mean -nan
scalar SingleCell_Standalone.ue[0].cellularNic.nrMac harqErrorRateUl:mean 0.0056605788742924278
scalar SingleCell_Standalone.ue[0].cellularNic.nrMac harqErrorRateDl:mean -nan
scalar SingleCell_Standalone.ue[0].cellularNic.nrMac macCellPacketLossUl:mean -nan
scalar SingleCell_Standalone.ue[0].cellularNic.nrMac macCellPacketLossDl:mean -nan
scalar SingleCell_Standalone.ue[0].cellularNic.nrMac macPacketLossUl:mean 0
scalar SingleCell_Standalone.ue[0].cellularNic.nrMac macPacketLossDl:mean -nan
scalar SingleCell_Standalone.ue[0].cellularNic.nrMac macThroughputUl:simu5g_rateavg 100646.66850050334
scalar SingleCell_Standalone.ue[0].cellularNic.nrMac macThroughputDl:simu5g_rateavg -nan
scalar SingleCell_Standalone.ue[0].cellularNic.nrMac macDelayUl:mean 0.0040488669315864043
scalar SingleCell_Standalone.ue[0].cellularNic.nrMac macDelayDl:mean -nan
scalar SingleCell_Standalone.ue[0].cellularNic.nrMac macCellThroughputUl:simu5g_rateavg -nan
scalar SingleCell_Standalone.ue[0].cellularNic.nrMac macCellThroughputDl:simu5g_rateavg -nan
scalar SingleCell_Standalone.ue[0].cellularNic.nrMac rcvdD2DModeSwitchNotification:count 0
scalar SingleCell_Standalone.ue[0].cellularNic.nrMac sentPacketToLowerLayer:count 11163
scalar SingleCell_Standalone.ue[0].cellularNic.nrMac sentPacketToLowerLayer:sum(packetBytes) 5065349
scalar SingleCell_Standalone.ue[0].cellularNic.nrMac sentPacketToUpperLayer:count 9465
scalar SingleCell_Standalone.ue[0].cellularNic.nrMac sentPacketToUpperLayer:sum(packetBytes) 9465
scalar SingleCell_Standalone.ue[0].cellularNic.nrMac receivedPacketFromLowerLayer:count 20687
scalar SingleCell_Standalone.ue[0].cellularNic.nrMac receivedPacketFromLowerLayer:sum(packetBytes) 20687
scalar SingleCell_Standalone.ue[0].cellularNic.nrMac receivedPacketFromUpperLayer:count 14465
scalar SingleCell_Standalone.ue[0].cellularNic.nrMac receivedPacketFromUpperLayer:sum(packetBytes) 10207782
scalar SingleCell_Standalone.ue[0].cellularNic.nrMac macBufferOverFlowD2D:mean -nan
scalar SingleCell_Standalone.ue[0].cellularNic.nrMac macBufferOverFlowUl:mean -nan
scalar SingleCell_Standalone.ue[0].cellularNic.nrMac macBufferOverFlowDl:mean -nan
scalar SingleCell_Standalone.ue[0].cellularNic.nrPhy distance:mean 85.124228521464204
scalar SingleCell_Standalone.ue[0].cellularNic.nrPhy averageCqiD2D:mean -nan
scalar SingleCell_Standalone.ue[0].cellularNic.nrPhy averageCqiUl:mean 14.635412217001281
scalar SingleCell_Standalone.ue[0].cellularNic.nrPhy averageCqiUl:count 9364
scalar SingleCell_Standalone.ue[0].cellularNic.nrPhy averageCqiDl:mean -nan
scalar SingleCell_Standalone.ue[0].cellularNic.nrPhy averageCqiDl:count 0
scalar SingleCell_Standalone.ue[0].cellularNic.nrChannelModel[0] measuredSinrUl:mean 47.650782937456498
scalar SingleCell_Standalone.ue[0].cellularNic.nrChannelModel[0] measuredSinrDl:mean 60.654938297092521
scalar SingleCell_Standalone.ue[0].cellularNic.nrChannelModel[0] rcvdSinrD2D:mean -nan
scalar SingleCell_Standalone.ue[0].cellularNic.nrChannelModel[0] rcvdSinrUl:mean 48.186245274398885
scalar SingleCell_Standalone.ue[0].cellularNic.nrChannelModel[0] rcvdSinrDl:mean -nan
scalar SingleCell_Standalone.ue[0].cellularNic packetDropInterfaceDown:count 0
scalar SingleCell_Standalone.ue[0].cellularNic packetDropInterfaceDown:sum(packetBytes) 0
scalar SingleCell_Standalone.ue[0].cellularNic packetDropNoCarrier:count 0
scalar SingleCell_Standalone.ue[0].cellularNic packetDropNoCarrier:sum(packetBytes) 0
scalar SingleCell_Standalone.ue[0].encap pauseSent:count 0
scalar SingleCell_Standalone.ue[0].encap pauseSent:sum 0
scalar SingleCell_Standalone.ue[0].encap decapPk:count 0
scalar SingleCell_Standalone.ue[0].encap decapPk:sum(packetBytes) 0
scalar SingleCell_Standalone.ue[0].encap encapPk:count 0
scalar SingleCell_Standalone.ue[0].encap encapPk:sum(packetBytes) 0
scalar SingleCell_Standalone.ue[0].ipv4.ip packetDropAddressResolutionFailed:count 0
scalar SingleCell_Standalone.ue[0].ipv4.ip packetDropAddressResolutionFailed:sum(packetBytes) 0
scalar SingleCell_Standalone.ue[0].ipv4.ip packetDropHopLimitReached:count 0
scalar SingleCell_Standalone.ue[0].ipv4.ip packetDropHopLimitReached:sum(packetBytes) 0
scalar SingleCell_Standalone.ue[0].ipv4.ip packetDropForwardingDisabled:count 0
scalar SingleCell_Standalone.ue[0].ipv4.ip packetDropForwardingDisabled:sum(packetBytes) 0
scalar SingleCell_Standalone.ue[0].ipv4.ip packetDropNoInterfaceFound:count 0
scalar SingleCell_Standalone.ue[0].ipv4.ip packetDropNoInterfaceFound:sum(packetBytes) 0
scalar SingleCell_Standalone.ue[0].ipv4.ip packetDropNoRouteFound:count 0
scalar SingleCell_Standalone.ue[0].ipv4.ip packetDropNoRouteFound:sum(packetBytes) 0
scalar SingleCell_Standalone.ue[0].ipv4.ip packetDropUndefined:count 0
scalar SingleCell_Standalone.ue[0].ipv4.ip packetDropUndefined:sum(packetBytes) 0
scalar SingleCell_Standalone.ue[0].ipv4.arp arpResolutionFailed:count 0
scalar SingleCell_Standalone.ue[0].ipv4.arp arpResolutionCompleted:count 0
scalar SingleCell_Standalone.ue[0].ipv4.arp arpResolutionInitiated:count 0
scalar SingleCell_Standalone.ue[0].ipv4.arp arpReplySent:count 0
scalar SingleCell_Standalone.ue[0].ipv4.arp arpReplySent:sum(packetBytes) 0
scalar SingleCell_Standalone.ue[0].ipv4.arp arpRequestSent:count 0
scalar SingleCell_Standalone.ue[0].ipv4.arp arpRequestSent:sum(packetBytes) 0
scalar SingleCell_Standalone.ue[0].udp packetReceived:count 0
scalar SingleCell_Standalone.ue[0].udp packetReceived:sum(packetBytes) 0
scalar SingleCell_Standalone.ue[0].udp packetSent:count 2500
scalar SingleCell_Standalone.ue[0].udp packetSent:sum(packetBytes) 5020000
scalar SingleCell_Standalone.ue[0].udp passedUpPk:count 0
scalar SingleCell_Standalone.ue[0].udp droppedPkWrongPort:count 0
scalar SingleCell_Standalone.ue[0].udp droppedPkBadChecksum:count 0
scalar SingleCell_Standalone.ue[0].app[0] cbrGeneratedBytes:mean 2000
scalar SingleCell_Standalone.ue[0].app[0] cbrGeneratedBytes:last(sumPerDuration) 100019.07739909137
scalar SingleCell_Standalone.ue[0].app[0] cbrGeneratedThroughput:simu5g_rateavg 100000
scalar SingleCell_Standalone.ue[1].lo[0].lo rcvdPkFromHl:count 0
scalar SingleCell_Standalone.ue[1].lo[0].lo rcvdPkFromHl:sum(packetBytes) 0
scalar SingleCell_Standalone.ue[1].lo[0].lo passedUpPk:count 0
scalar SingleCell_Standalone.ue[1].lo[0].lo passedUpPk:sum(packetBytes) 0
scalar SingleCell_Standalone.ue[1].lo[0] packetDropInterfaceDown:count 0
scalar SingleCell_Standalone.ue[1].lo[0] packetDropInterfaceDown:sum(packetBytes) 0
scalar SingleCell_Standalone.ue[1].lo[0] packetDropNoCarrier:count 0
scalar SingleCell_Standalone.ue[1].lo[0] packetDropNoCarrier:sum(packetBytes) 0
scalar SingleCell_Standalone.ue[1].cellularNic.rlcMux rlcCellThroughputD2D:simu5g_rateavg -nan
scalar SingleCell_Standalone.ue[1].cellularNic.rlcMux rlcPduThroughputD2D:simu5g_rateavg -nan
scalar SingleCell_Standalone.ue[1].cellularNic.rlcMux rlcPduDelayD2D:mean -nan
scalar SingleCell_Standalone.ue[1].cellularNic.rlcMux rlcThroughputD2D:simu5g_rateavg -nan
scalar SingleCell_Standalone.ue[1].cellularNic.rlcMux rlcDelayD2D:mean -nan
scalar SingleCell_Standalone.ue[1].cellularNic.rlcMux rlcCellThroughputUl:simu5g_rateavg -nan
scalar SingleCell_Standalone.ue[1].cellularNic.rlcMux rlcCellThroughputDl:simu5g_rateavg -nan
scalar SingleCell_Standalone.ue[1].cellularNic.rlcMux rlcPduThroughputUl:simu5g_rateavg -nan
scalar SingleCell_Standalone.ue[1].cellularNic.rlcMux rlcPduThroughputDl:simu5g_rateavg -nan
scalar SingleCell_Standalone.ue[1].cellularNic.rlcMux rlcPduDelayUl:mean -nan
scalar SingleCell_Standalone.ue[1].cellularNic.rlcMux rlcPduDelayDl:mean -nan
scalar SingleCell_Standalone.ue[1].cellularNic.rlcMux rlcThroughputUl:simu5g_rateavg -nan
scalar SingleCell_Standalone.ue[1].cellularNic.rlcMux rlcThroughputDl:simu5g_rateavg -nan
scalar SingleCell_Standalone.ue[1].cellularNic.rlcMux rlcDelayUl:mean -nan
scalar SingleCell_Standalone.ue[1].cellularNic.rlcMux rlcDelayDl:mean -nan
scalar SingleCell_Standalone.ue[1].cellularNic.rlcMux sentPacketToLowerLayer:count 0
scalar SingleCell_Standalone.ue[1].cellularNic.rlcMux sentPacketToLowerLayer:sum(packetBytes) 0
scalar SingleCell_Standalone.ue[1].cellularNic.rlcMux receivedPacketFromLowerLayer:count 0
scalar SingleCell_Standalone.ue[1].cellularNic.rlcMux receivedPacketFromLowerLayer:sum(packetBytes) 0
scalar SingleCell_Standalone.ue[1].cellularNic.mac harqErrorRate_4th_D2D:mean -nan
scalar SingleCell_Standalone.ue[1].cellularNic.mac harqErrorRate_3rd_D2D:mean -nan
scalar SingleCell_Standalone.ue[1].cellularNic.mac harqErrorRate_2nd_D2D:mean -nan
scalar SingleCell_Standalone.ue[1].cellularNic.mac harqErrorRate_1st_D2D:mean -nan
scalar SingleCell_Standalone.ue[1].cellularNic.mac harqErrorRateD2D:mean -nan
scalar SingleCell_Standalone.ue[1].cellularNic.mac macPacketLossD2D:mean -nan
scalar SingleCell_Standalone.ue[1].cellularNic.mac macDelayD2D:mean -nan
scalar SingleCell_Standalone.ue[1].cellularNic.mac macThroughputD2D:simu5g_rateavg -nan
scalar SingleCell_Standalone.ue[1].cellularNic.mac harqTxAttemptsUl:mean -nan
scalar SingleCell_Standalone.ue[1].cellularNic.mac harqTxAttemptsDl:mean -nan
scalar SingleCell_Standalone.ue[1].cellularNic.mac harqErrorRate_4th_Ul:mean -nan
scalar SingleCell_Standalone.ue[1].cellularNic.mac harqErrorRate_4th_Dl:mean -nan
scalar SingleCell_Standalone.ue[1].cellularNic.mac harqErrorRate_3rd_Ul:mean -nan
scalar SingleCell_Standalone.ue[1].cellularNic.mac harqErrorRate_3rd_Dl:mean -nan
scalar SingleCell_Standalone.ue[1].cellularNic.mac harqErrorRate_2nd_Ul:mean -nan
scalar SingleCell_Standalone.ue[1].cellularNic.mac harqErrorRate_2nd_Dl:mean -nan
scalar SingleCell_Standalone.ue[1].cellularNic.mac harqErrorRate_1st_Ul:mean -nan
scalar SingleCell_Standalone.ue[1].cellularNic.mac harqErrorRate_1st_Dl:mean -nan
scalar SingleCell_Standalone.ue[1].cellularNic.mac harqErrorRateUl:mean -nan
scalar SingleCell_Standalone.ue[1].cellularNic.mac harqErrorRateDl:mean -nan
scalar SingleCell_Standalone.ue[1].cellularNic.mac macCellPacketLossUl:mean -nan
scalar SingleCell_Standalone.ue[1].cellularNic.mac macCellPacketLossDl:mean -nan
scalar SingleCell_Standalone.ue[1].cellularNic.mac macPacketLossUl:mean -nan
scalar SingleCell_Standalone.ue[1].cellularNic.mac macPacketLossDl:mean -nan
scalar SingleCell_Standalone.ue[1].cellularNic.mac macThroughputUl:simu5g_rateavg -nan
scalar SingleCell_Standalone.ue[1].cellularNic.mac macThroughputDl:simu5g_rateavg -nan
scalar SingleCell_Standalone.ue[1].cellularNic.mac macDelayUl:mean -nan
scalar SingleCell_Standalone.ue[1].cellularNic.mac macDelayDl:mean -nan
scalar SingleCell_Standalone.ue[1].cellularNic.mac macCellThroughputUl:simu5g_rateavg -nan
scalar SingleCell_Standalone.ue[1].cellularNic.mac macCellThroughputDl:simu5g_rateavg -nan
scalar SingleCell_Standalone.ue[1].cellularNic.mac rcvdD2DModeSwitchNotification:count 0
scalar SingleCell_Standalone.ue[1].cellularNic.mac sentPacketToLowerLayer:count 0
scalar SingleCell_Standalone.ue[1].cellularNic.mac sentPacketToLowerLayer:sum(packetBytes) 0
scalar SingleCell_Standalone.ue[1].cellularNic.mac sentPacketToUpperLayer:count 0
scalar SingleCell_Standalone.ue[1].cellularNic.mac sentPacketToUpperLayer:sum(packetBytes) 0
scalar SingleCell_Standalone.ue[1].cellularNic.mac receivedPacketFromLowerLayer:count 0
scalar SingleCell_Standalone.ue[1].cellularNic.mac receivedPacketFromLowerLayer:sum(packetBytes) 0
scalar SingleCell_Standalone.ue[1].cellularNic.mac receivedPacketFromUpperLayer:count 0
scalar SingleCell_Standalone.ue[1].cellularNic.mac receivedPacketFromUpperLayer:sum(packetBytes) 0
scalar SingleCell_Standalone.ue[1].cellularNic.mac macBufferOverFlowD2D:mean -nan
scalar SingleCell_Standalone.ue[1].cellularNic.mac macBufferOverFlowUl:mean -nan
scalar SingleCell_Standalone.ue[1].cellularNic.mac macBufferOverFlowDl:mean -nan
scalar SingleCell_Standalone.ue[1].cellularNic.phy distance:mean -nan
scalar SingleCell_Standalone.ue[1].cellularNic.phy averageCqiD2D:mean -nan
scalar SingleCell_Standalone.ue[1].cellularNic.phy averageCqiUl:mean -nan
scalar SingleCell_Standalone.ue[1].cellularNic.phy averageCqiUl:count 0
scalar SingleCell_Standalone.ue[1].cellularNic.phy averageCqiDl:mean -nan
scalar SingleCell_Standalone.ue[1].cellularNic.phy averageCqiDl:count 0
scalar SingleCell_Standalone.ue[1].cellularNic.channelModel[0] measuredSinrUl:mean -nan
scalar SingleCell_Standalone.ue[1].cellularNic.channelModel[0] measuredSinrDl:mean -nan
scalar SingleCell_Standalone.ue[1].cellularNic.channelModel[0] rcvdSinrD2D:mean -nan
scalar SingleCell_Standalone.ue[1].cellularNic.channelModel[0] rcvdSinrUl:mean -nan
scalar SingleCell_Standalone.ue[1].cellularNic.channelModel[0] rcvdSinrDl:mean -nan
scalar SingleCell_Standalone.ue[1].cellularNic.nrRlcMux rlcCellThroughputD2D:simu5g_rateavg -nan
scalar SingleCell_Standalone.ue[1].cellularNic.nrRlcMux rlcPduThroughputD2D:simu5g_rateavg -nan
scalar SingleCell_Standalone.ue[1].cellularNic.nrRlcMux rlcPduDelayD2D:mean -nan
scalar SingleCell_Standalone.ue[1].cellularNic.nrRlcMux rlcThroughputD2D:simu5g_rateavg -nan
scalar SingleCell_Standalone.ue[1].cellularNic.nrRlcMux rlcDelayD2D:mean -nan
scalar SingleCell_Standalone.ue[1].cellularNic.nrRlcMux rlcCellThroughputUl:simu5g_rateavg -nan
scalar SingleCell_Standalone.ue[1].cellularNic.nrRlcMux rlcCellThroughputDl:simu5g_rateavg -nan
scalar SingleCell_Standalone.ue[1].cellularNic.nrRlcMux rlcPduThroughputUl:simu5g_rateavg 0
scalar SingleCell_Standalone.ue[1].cellularNic.nrRlcMux rlcPduThroughputDl:simu5g_rateavg -nan
scalar SingleCell_Standalone.ue[1].cellularNic.nrRlcMux rlcPduDelayUl:mean 0.0040521945432980743
scalar SingleCell_Standalone.ue[1].cellularNic.nrRlcMux rlcPduDelayDl:mean -nan
scalar SingleCell_Standalone.ue[1].cellularNic.nrRlcMux rlcThroughputUl:simu5g_rateavg 97366.738415467727
scalar SingleCell_Standalone.ue[1].cellularNic.nrRlcMux rlcThroughputDl:simu5g_rateavg -nan
scalar SingleCell_Standalone.ue[1].cellularNic.nrRlcMux rlcDelayUl:mean 0.22941485798540751
scalar SingleCell_Standalone.ue[1].cellularNic.nrRlcMux rlcDelayDl:mean -nan
scalar SingleCell_Standalone.ue[1].cellularNic.nrRlcMux sentPacketToLowerLayer:count 13578
scalar SingleCell_Standalone.ue[1].cellularNic.nrRlcMux sentPacketToLowerLayer:sum(packetBytes) 9295617
scalar SingleCell_Standalone.ue[1].cellularNic.nrRlcMux receivedPacketFromLowerLayer:count 0
scalar SingleCell_Standalone.ue[1].cellularNic.nrRlcMux receivedPacketFromLowerLayer:sum(packetBytes) 0
scalar SingleCell_Standalone.ue[1].cellularNic.nrMac harqErrorRate_4th_D2D:mean -nan
scalar SingleCell_Standalone.ue[1].cellularNic.nrMac harqErrorRate_3rd_D2D:mean -nan
scalar SingleCell_Standalone.ue[1].cellularNic.nrMac harqErrorRate_2nd_D2D:mean -nan
scalar SingleCell_Standalone.ue[1].cellularNic.nrMac harqErrorRate_1st_D2D:mean -nan
scalar SingleCell_Standalone.ue[1].cellularNic.nrMac harqErrorRateD2D:mean -nan
scalar SingleCell_Standalone.ue[1].cellularNic.nrMac macPacketLossD2D:mean -nan
scalar SingleCell_Standalone.ue[1].cellularNic.nrMac macDelayD2D:mean -nan
scalar SingleCell_Standalone.ue[1].cellularNic.nrMac macThroughputD2D:simu5g_rateavg -nan
scalar SingleCell_Standalone.ue[1].cellularNic.nrMac harqTxAttemptsUl:mean 1.0075919335705812
scalar SingleCell_Standalone.ue[1].cellularNic.nrMac harqTxAttemptsDl:mean -nan
scalar SingleCell_Standalone.ue[1].cellularNic.nrMac harqErrorRate_4th_Ul:mean -nan
scalar SingleCell_Standalone.ue[1].cellularNic.nrMac harqErrorRate_4th_Dl:mean -nan
scalar SingleCell_Standalone.ue[1].cellularNic.nrMac harqErrorRate_3rd_Ul:mean 0
scalar SingleCell_Standalone.ue[1].cellularNic.nrMac harqErrorRate_3rd_Dl:mean -nan
scalar SingleCell_Standalone.ue[1].cellularNic.nrMac harqErrorRate_2nd_Ul:mean 0.015873015873015872
scalar SingleCell_Standalone.ue[1].cellularNic.nrMac harqErrorRate_2nd_Dl:mean -nan
scalar SingleCell_Standalone.ue[1].cellularNic.nrMac harqErrorRate_1st_Ul:mean 0.0074733096085409251
scalar SingleCell_Standalone.ue[1].cellularNic.nrMac harqErrorRate_1st_Dl:mean -nan
scalar SingleCell_Standalone.ue[1].cellularNic.nrMac harqErrorRateUl:mean 0.0075347303979279492
scalar SingleCell_Standalone.ue[1].cellularNic.nrMac harqErrorRateDl:mean -nan
scalar SingleCell_Standalone.ue[1].cellularNic.nrMac macCellPacketLossUl:mean -nan
scalar SingleCell_Standalone.ue[1].cellularNic.nrMac macCellPacketLossDl:mean -nan
scalar SingleCell_Standalone.ue[1].cellularNic.nrMac macPacketLossUl:mean 0
scalar SingleCell_Standalone.ue[1].cellularNic.nrMac macPacketLossDl:mean -nan
scalar SingleCell_Standalone.ue[1].cellularNic.nrMac macThroughputUl:simu5g_rateavg 99558.804586795668
scalar SingleCell_Standalone.ue[1].cellularNic.nrMac macThroughputDl:simu5g_rateavg -nan
scalar SingleCell_Standalone.ue[1].cellularNic.nrMac macDelayUl:mean 0.0040521945432980743
scalar SingleCell_Standalone.ue[1].cellularNic.nrMac macDelayDl:mean -nan
scalar SingleCell_Standalone.ue[1].cellularNic.nrMac macCellThroughputUl:simu5g_rateavg -nan
scalar SingleCell_Standalone.ue[1].cellularNic.nrMac macCellThroughputDl:simu5g_rateavg -nan
scalar SingleCell_Standalone.ue[1].cellularNic.nrMac rcvdD2DModeSwitchNotification:count 0
scalar SingleCell_Standalone.ue[1].cellularNic.nrMac sentPacketToLowerLayer:count 9996
scalar SingleCell_Standalone.ue[1].cellularNic.nrMac sentPacketToLowerLayer:sum(packetBytes) 4168437
scalar SingleCell_Standalone.ue[1].cellularNic.nrMac sentPacketToUpperLayer:count 8578
scalar SingleCell_Standalone.ue[1].cellularNic.nrMac sentPacketToUpperLayer:sum(packetBytes) 8578
scalar SingleCell_Standalone.ue[1].cellularNic.nrMac receivedPacketFromLowerLayer:count 18646
scalar SingleCell_Standalone.ue[1].cellularNic.nrMac receivedPacketFromLowerLayer:sum(packetBytes) 18646
scalar SingleCell_Standalone.ue[1].cellularNic.nrMac receivedPacketFromUpperLayer:count 13578
scalar SingleCell_Standalone.ue[1].cellularNic.nrMac receivedPacketFromUpperLayer:sum(packetBytes) 9295617
scalar SingleCell_Standalone.ue[1].cellularNic.nrMac macBufferOverFlowD2D:mean -nan
scalar SingleCell_Standalone.ue[1].cellularNic.nrMac macBufferOverFlowUl:mean -nan
scalar SingleCell_Standalone.ue[1].cellularNic.nrMac macBufferOverFlowDl:mean -nan
scalar SingleCell_Standalone.ue[1].cellularNic.nrPhy distance:mean 168.57734730706576
scalar SingleCell_Standalone.ue[1].cellularNic.nrPhy averageCqiD2D:mean -nan
scalar SingleCell_Standalone.ue[1].cellularNic.nrPhy averageCqiUl:mean 14.228631975512126
scalar SingleCell_Standalone.ue[1].cellularNic.nrPhy averageCqiUl:count 8494
scalar SingleCell_Standalone.ue[1].cellularNic.nrPhy averageCqiDl:mean -nan
scalar SingleCell_Standalone.ue[1].cellularNic.nrPhy averageCqiDl:count 0
scalar SingleCell_Standalone.ue[1].cellularNic.nrChannelModel[0] measuredSinrUl:mean 38.522928913519365
scalar SingleCell_Standalone.ue[1].cellularNic.nrChannelModel[0] measuredSinrDl:mean 46.927612864220464
scalar SingleCell_Standalone.ue[1].cellularNic.nrChannelModel[0] rcvdSinrD2D:mean -nan
scalar SingleCell_Standalone.ue[1].cellularNic.nrChannelModel[0] rcvdSinrUl:mean 42.28250480794766
scalar SingleCell_Standalone.ue[1].cellularNic.nrChannelModel[0] rcvdSinrDl:mean -nan
scalar SingleCell_Standalone.ue[1].cellularNic packetDropInterfaceDown:count 0
scalar SingleCell_Standalone.ue[1].cellularNic packetDropInterfaceDown:sum(packetBytes) 0
scalar SingleCell_Standalone.ue[1].cellularNic packetDropNoCarrier:count 0
scalar SingleCell_Standalone.ue[1].cellularNic packetDropNoCarrier:sum(packetBytes) 0
scalar SingleCell_Standalone.ue[1].encap pauseSent:count 0
scalar SingleCell_Standalone.ue[1].encap pauseSent:sum 0
scalar SingleCell_Standalone.ue[1].encap decapPk:count 0
scalar SingleCell_Standalone.ue[1].encap decapPk:sum(packetBytes) 0
scalar SingleCell_Standalone.ue[1].encap encapPk:count 0
scalar SingleCell_Standalone.ue[1].encap encapPk:sum(packetBytes) 0
scalar SingleCell_Standalone.ue[1].ipv4.ip packetDropAddressResolutionFailed:count 0
scalar SingleCell_Standalone.ue[1].ipv4.ip packetDropAddressResolutionFailed:sum(packetBytes) 0
scalar SingleCell_Standalone.ue[1].ipv4.ip packetDropHopLimitReached:count 0
scalar SingleCell_Standalone.ue[1].ipv4.ip packetDropHopLimitReached:sum(packetBytes) 0
scalar SingleCell_Standalone.ue[1].ipv4.ip packetDropForwardingDisabled:count 0
scalar SingleCell_Standalone.ue[1].ipv4.ip packetDropForwardingDisabled:sum(packetBytes) 0
scalar SingleCell_Standalone.ue[1].ipv4.ip packetDropNoInterfaceFound:count 0
scalar SingleCell_Standalone.ue[1].ipv4.ip packetDropNoInterfaceFound:sum(packetBytes) 0
scalar SingleCell_Standalone.ue[1].ipv4.ip packetDropNoRouteFound:count 0
scalar SingleCell_Standalone.ue[1].ipv4.ip packetDropNoRouteFound:sum(packetBytes) 0
scalar SingleCell_Standalone.ue[1].ipv4.ip packetDropUndefined:count 0
scalar SingleCell_Standalone.ue[1].ipv4.ip packetDropUndefined:sum(packetBytes) 0
scalar SingleCell_Standalone.ue[1].ipv4.arp arpResolutionFailed:count 0
scalar SingleCell_Standalone.ue[1].ipv4.arp arpResolutionCompleted:count 0
scalar SingleCell_Standalone.ue[1].ipv4.arp arpResolutionInitiated:count 0
scalar SingleCell_Standalone.ue[1].ipv4.arp arpReplySent:count 0
scalar SingleCell_Standalone.ue[1].ipv4.arp arpReplySent:sum(packetBytes) 0
scalar SingleCell_Standalone.ue[1].ipv4.arp arpRequestSent:count 0
scalar SingleCell_Standalone.ue[1].ipv4.arp arpRequestSent:sum(packetBytes) 0
scalar SingleCell_Standalone.ue[1].udp packetReceived:count 0
scalar SingleCell_Standalone.ue[1].udp packetReceived:sum(packetBytes) 0
scalar SingleCell_Standalone.ue[1].udp packetSent:count 2500
scalar SingleCell_Standalone.ue[1].udp packetSent:sum(packetBytes) 5020000
scalar SingleCell_Standalone.ue[1].udp passedUpPk:count 0
scalar SingleCell_Standalone.ue[1].udp droppedPkWrongPort:count 0
scalar SingleCell_Standalone.ue[1].udp droppedPkBadChecksum:count 0
scalar SingleCell_Standalone.ue[1].app[0] cbrGeneratedBytes:mean 2000
scalar SingleCell_Standalone.ue[1].app[0] cbrGeneratedBytes:last(sumPerDuration) 100015.80077548463
scalar SingleCell_Standalone.ue[1].app[0] cbrGeneratedThroughput:simu5g_rateavg 100000
scalar SingleCell_Standalone.ue[2].lo[0].lo rcvdPkFromHl:count 0
scalar SingleCell_Standalone.ue[2].lo[0].lo rcvdPkFromHl:sum(packetBytes) 0
scalar SingleCell_Standalone.ue[2].lo[0].lo passedUpPk:count 0
scalar SingleCell_Standalone.ue[2].lo[0].lo passedUpPk:sum(packetBytes) 0
scalar SingleCell_Standalone.ue[2].lo[0] packetDropInterfaceDown:count 0
scalar SingleCell_Standalone.ue[2].lo[0] packetDropInterfaceDown:sum(packetBytes) 0
scalar SingleCell_Standalone.ue[2].lo[0] packetDropNoCarrier:count 0
scalar SingleCell_Standalone.ue[2].lo[0] packetDropNoCarrier:sum(packetBytes) 0
scalar SingleCell_Standalone.ue[2].cellularNic.rlcMux rlcCellThroughputD2D:simu5g_rateavg -nan
scalar SingleCell_Standalone.ue[2].cellularNic.rlcMux rlcPduThroughputD2D:simu5g_rateavg -nan
scalar SingleCell_Standalone.ue[2].cellularNic.rlcMux rlcPduDelayD2D:mean -nan
scalar SingleCell_Standalone.ue[2].cellularNic.rlcMux rlcThroughputD2D:simu5g_rateavg -nan
scalar SingleCell_Standalone.ue[2].cellularNic.rlcMux rlcDelayD2D:mean -nan
scalar SingleCell_Standalone.ue[2].cellularNic.rlcMux rlcCellThroughputUl:simu5g_rateavg -nan
scalar SingleCell_Standalone.ue[2].cellularNic.rlcMux rlcCellThroughputDl:simu5g_rateavg -nan
scalar SingleCell_Standalone.ue[2].cellularNic.rlcMux rlcPduThroughputUl:simu5g_rateavg -nan
scalar SingleCell_Standalone.ue[2].cellularNic.rlcMux rlcPduThroughputDl:simu5g_rateavg -nan
[...]
scalar SingleCell_Standalone.ue[9].cellularNic.nrChannelModel[0] rcvdSinrDl:vector:min inf
scalar SingleCell_Standalone.ue[9].cellularNic.nrChannelModel[0] rcvdSinrDl:vector:max -inf
scalar SingleCell_Standalone.ue[9].cellularNic.nrChannelModel[0] rcvdSinrDl:vector:starttime nan
scalar SingleCell_Standalone.ue[9].cellularNic.nrChannelModel[0] rcvdSinrDl:vector:endtime nan
scalar SingleCell_Standalone.ue[9].cellularNic.nrChannelModel[0] rcvdSinrUl:vector:count 7886
scalar SingleCell_Standalone.ue[9].cellularNic.nrChannelModel[0] rcvdSinrUl:vector:sum 249542.84508803309
scalar SingleCell_Standalone.ue[9].cellularNic.nrChannelModel[0] rcvdSinrUl:vector:sumweights 7886
scalar SingleCell_Standalone.ue[9].cellularNic.nrChannelModel[0] rcvdSinrUl:vector:mean 31.643779493790653
scalar SingleCell_Standalone.ue[9].cellularNic.nrChannelModel[0] rcvdSinrUl:vector:stddev 7.924857513202765
scalar SingleCell_Standalone.ue[9].cellularNic.nrChannelModel[0] rcvdSinrUl:vector:min 2.1150089304752839
scalar SingleCell_Standalone.ue[9].cellularNic.nrChannelModel[0] rcvdSinrUl:vector:max 55.276959931891604
scalar SingleCell_Standalone.ue[9].cellularNic.nrChannelModel[0] rcvdSinrUl:vector:starttime 0.0060000000000000001
scalar SingleCell_Standalone.ue[9].cellularNic.nrChannelModel[0] rcvdSinrUl:vector:endtime 49.872
scalar SingleCell_Standalone.ue[9].cellularNic.nrChannelModel[0] rcvdSinrD2D:vector:count 0
scalar SingleCell_Standalone.ue[9].cellularNic.nrChannelModel[0] rcvdSinrD2D:vector:sum 0
scalar SingleCell_Standalone.ue[9].cellularNic.nrChannelModel[0] rcvdSinrD2D:vector:sumweights 0
scalar SingleCell_Standalone.ue[9].cellularNic.nrChannelModel[0] rcvdSinrD2D:vector:mean -nan
scalar SingleCell_Standalone.ue[9].cellularNic.nrChannelModel[0] rcvdSinrD2D:vector:stddev nan
scalar SingleCell_Standalone.ue[9].cellularNic.nrChannelModel[0] rcvdSinrD2D:vector:min inf
scalar SingleCell_Standalone.ue[9].cellularNic.nrChannelModel[0] rcvdSinrD2D:vector:max -inf
scalar SingleCell_Standalone.ue[9].cellularNic.nrChannelModel[0] rcvdSinrD2D:vector:starttime nan
scalar SingleCell_Standalone.ue[9].cellularNic.nrChannelModel[0] rcvdSinrD2D:vector:endtime nan
scalar SingleCell_Standalone.ue[9].cellularNic.nrChannelModel[0] measuredSinrDl:vector:count 5000
scalar SingleCell_Standalone.ue[9].cellularNic.nrChannelModel[0] measuredSinrDl:vector:sum 226606.48212003673
scalar SingleCell_Standalone.ue[9].cellularNic.nrChannelModel[0] measuredSinrDl:vector:sumweights 5000
scalar SingleCell_Standalone.ue[9].cellularNic.nrChannelModel[0] measuredSinrDl:vector:mean 45.321296424007343
scalar SingleCell_Standalone.ue[9].cellularNic.nrChannelModel[0] measuredSinrDl:vector:stddev 7.1844770832783027
scalar SingleCell_Standalone.ue[9].cellularNic.nrChannelModel[0] measuredSinrDl:vector:min 26.258756599134816
scalar SingleCell_Standalone.ue[9].cellularNic.nrChannelModel[0] measuredSinrDl:vector:max 61.711888456175984
scalar SingleCell_Standalone.ue[9].cellularNic.nrChannelModel[0] measuredSinrDl:vector:starttime 0.002
scalar SingleCell_Standalone.ue[9].cellularNic.nrChannelModel[0] measuredSinrDl:vector:endtime 49.992000000000004
scalar SingleCell_Standalone.ue[9].cellularNic.nrChannelModel[0] measuredSinrUl:vector:count 5000
scalar SingleCell_Standalone.ue[9].cellularNic.nrChannelModel[0] measuredSinrUl:vector:sum 134378.15098221536
scalar SingleCell_Standalone.ue[9].cellularNic.nrChannelModel[0] measuredSinrUl:vector:sumweights 5000
scalar SingleCell_Standalone.ue[9].cellularNic.nrChannelModel[0] measuredSinrUl:vector:mean 26.875630196443073
scalar SingleCell_Standalone.ue[9].cellularNic.nrChannelModel[0] measuredSinrUl:vector:stddev 9.6885098721598464
scalar SingleCell_Standalone.ue[9].cellularNic.nrChannelModel[0] measuredSinrUl:vector:min 2.6951130156345493
scalar SingleCell_Standalone.ue[9].cellularNic.nrChannelModel[0] measuredSinrUl:vector:max 50.77197230846874
scalar SingleCell_Standalone.ue[9].cellularNic.nrChannelModel[0] measuredSinrUl:vector:starttime 0.002
scalar SingleCell_Standalone.ue[9].cellularNic.nrChannelModel[0] measuredSinrUl:vector:endtime 49.992000000000004
scalar SingleCell_Standalone.ue[9].cellularNic packetDropInterfaceDown:vector(packetBytes):count 0
scalar SingleCell_Standalone.ue[9].cellularNic packetDropInterfaceDown:vector(packetBytes):sum 0
scalar SingleCell_Standalone.ue[9].cellularNic packetDropInterfaceDown:vector(packetBytes):sumweights 0
scalar SingleCell_Standalone.ue[9].cellularNic packetDropInterfaceDown:vector(packetBytes):mean -nan
scalar SingleCell_Standalone.ue[9].cellularNic packetDropInterfaceDown:vector(packetBytes):stddev nan
scalar SingleCell_Standalone.ue[9].cellularNic packetDropInterfaceDown:vector(packetBytes):min inf
scalar SingleCell_Standalone.ue[9].cellularNic packetDropInterfaceDown:vector(packetBytes):max -inf
scalar SingleCell_Standalone.ue[9].cellularNic packetDropInterfaceDown:vector(packetBytes):starttime nan
scalar SingleCell_Standalone.ue[9].cellularNic packetDropInterfaceDown:vector(packetBytes):endtime nan
scalar SingleCell_Standalone.ue[9].cellularNic packetDropNoCarrier:vector(packetBytes):count 0
scalar SingleCell_Standalone.ue[9].cellularNic packetDropNoCarrier:vector(packetBytes):sum 0
scalar SingleCell_Standalone.ue[9].cellularNic packetDropNoCarrier:vector(packetBytes):sumweights 0
scalar SingleCell_Standalone.ue[9].cellularNic packetDropNoCarrier:vector(packetBytes):mean -nan
scalar SingleCell_Standalone.ue[9].cellularNic packetDropNoCarrier:vector(packetBytes):stddev nan
scalar SingleCell_Standalone.ue[9].cellularNic packetDropNoCarrier:vector(packetBytes):min inf
scalar SingleCell_Standalone.ue[9].cellularNic packetDropNoCarrier:vector(packetBytes):max -inf
scalar SingleCell_Standalone.ue[9].cellularNic packetDropNoCarrier:vector(packetBytes):starttime nan
scalar SingleCell_Standalone.ue[9].cellularNic packetDropNoCarrier:vector(packetBytes):endtime nan
scalar SingleCell_Standalone.ue[9].encap encapPk:vector(packetBytes):count 0
scalar SingleCell_Standalone.ue[9].encap encapPk:vector(packetBytes):sum 0
scalar SingleCell_Standalone.ue[9].encap encapPk:vector(packetBytes):sumweights 0
scalar SingleCell_Standalone.ue[9].encap encapPk:vector(packetBytes):mean -nan
scalar SingleCell_Standalone.ue[9].encap encapPk:vector(packetBytes):stddev nan
scalar SingleCell_Standalone.ue[9].encap encapPk:vector(packetBytes):min inf
scalar SingleCell_Standalone.ue[9].encap encapPk:vector(packetBytes):max -inf
scalar SingleCell_Standalone.ue[9].encap encapPk:vector(packetBytes):starttime nan
scalar SingleCell_Standalone.ue[9].encap encapPk:vector(packetBytes):endtime nan
scalar SingleCell_Standalone.ue[9].encap decapPk:vector(packetBytes):count 0
scalar SingleCell_Standalone.ue[9].encap decapPk:vector(packetBytes):sum 0
scalar SingleCell_Standalone.ue[9].encap decapPk:vector(packetBytes):sumweights 0
scalar SingleCell_Standalone.ue[9].encap decapPk:vector(packetBytes):mean -nan
scalar SingleCell_Standalone.ue[9].encap decapPk:vector(packetBytes):stddev nan
scalar SingleCell_Standalone.ue[9].encap decapPk:vector(packetBytes):min inf
scalar SingleCell_Standalone.ue[9].encap decapPk:vector(packetBytes):max -inf
scalar SingleCell_Standalone.ue[9].encap decapPk:vector(packetBytes):starttime nan
scalar SingleCell_Standalone.ue[9].encap decapPk:vector(packetBytes):endtime nan
scalar SingleCell_Standalone.ue[9].encap pauseSent:vector:count 0
scalar SingleCell_Standalone.ue[9].encap pauseSent:vector:sum 0
scalar SingleCell_Standalone.ue[9].encap pauseSent:vector:sumweights 0
scalar SingleCell_Standalone.ue[9].encap pauseSent:vector:mean -nan
scalar SingleCell_Standalone.ue[9].encap pauseSent:vector:stddev nan
scalar SingleCell_Standalone.ue[9].encap pauseSent:vector:min inf
scalar SingleCell_Standalone.ue[9].encap pauseSent:vector:max -inf
scalar SingleCell_Standalone.ue[9].encap pauseSent:vector:starttime nan
scalar SingleCell_Standalone.ue[9].encap pauseSent:vector:endtime nan
scalar SingleCell_Standalone.ue[9].ipv4.ip packetDropAddressResolutionFailed:vector(packetBytes):count 0
scalar SingleCell_Standalone.ue[9].ipv4.ip packetDropAddressResolutionFailed:vector(packetBytes):sum 0
scalar SingleCell_Standalone.ue[9].ipv4.ip packetDropAddressResolutionFailed:vector(packetBytes):sumweights 0
scalar SingleCell_Standalone.ue[9].ipv4.ip packetDropAddressResolutionFailed:vector(packetBytes):mean -nan
scalar SingleCell_Standalone.ue[9].ipv4.ip packetDropAddressResolutionFailed:vector(packetBytes):stddev nan
scalar SingleCell_Standalone.ue[9].ipv4.ip packetDropAddressResolutionFailed:vector(packetBytes):min inf
scalar SingleCell_Standalone.ue[9].ipv4.ip packetDropAddressResolutionFailed:vector(packetBytes):max -inf
scalar SingleCell_Standalone.ue[9].ipv4.ip packetDropAddressResolutionFailed:vector(packetBytes):starttime nan
scalar SingleCell_Standalone.ue[9].ipv4.ip packetDropAddressResolutionFailed:vector(packetBytes):endtime nan
scalar SingleCell_Standalone.ue[9].ipv4.ip packetDropHopLimitReached:vector(packetBytes):count 0
scalar SingleCell_Standalone.ue[9].ipv4.ip packetDropHopLimitReached:vector(packetBytes):sum 0
scalar SingleCell_Standalone.ue[9].ipv4.ip packetDropHopLimitReached:vector(packetBytes):sumweights 0
scalar SingleCell_Standalone.ue[9].ipv4.ip packetDropHopLimitReached:vector(packetBytes):mean -nan
scalar SingleCell_Standalone.ue[9].ipv4.ip packetDropHopLimitReached:vector(packetBytes):stddev nan
scalar SingleCell_Standalone.ue[9].ipv4.ip packetDropHopLimitReached:vector(packetBytes):min inf
scalar SingleCell_Standalone.ue[9].ipv4.ip packetDropHopLimitReached:vector(packetBytes):max -inf
scalar SingleCell_Standalone.ue[9].ipv4.ip packetDropHopLimitReached:vector(packetBytes):starttime nan
scalar SingleCell_Standalone.ue[9].ipv4.ip packetDropHopLimitReached:vector(packetBytes):endtime nan
scalar SingleCell_Standalone.ue[9].ipv4.ip packetDropForwardingDisabled:vector(packetBytes):count 0
scalar SingleCell_Standalone.ue[9].ipv4.ip packetDropForwardingDisabled:vector(packetBytes):sum 0
scalar SingleCell_Standalone.ue[9].ipv4.ip packetDropForwardingDisabled:vector(packetBytes):sumweights 0
scalar SingleCell_Standalone.ue[9].ipv4.ip packetDropForwardingDisabled:vector(packetBytes):mean -nan
scalar SingleCell_Standalone.ue[9].ipv4.ip packetDropForwardingDisabled:vector(packetBytes):stddev nan
scalar SingleCell_Standalone.ue[9].ipv4.ip packetDropForwardingDisabled:vector(packetBytes):min inf
scalar SingleCell_Standalone.ue[9].ipv4.ip packetDropForwardingDisabled:vector(packetBytes):max -inf
scalar SingleCell_Standalone.ue[9].ipv4.ip packetDropForwardingDisabled:vector(packetBytes):starttime nan
scalar SingleCell_Standalone.ue[9].ipv4.ip packetDropForwardingDisabled:vector(packetBytes):endtime nan
scalar SingleCell_Standalone.ue[9].ipv4.ip packetDropNoInterfaceFound:vector(packetBytes):count 0
scalar SingleCell_Standalone.ue[9].ipv4.ip packetDropNoInterfaceFound:vector(packetBytes):sum 0
scalar SingleCell_Standalone.ue[9].ipv4.ip packetDropNoInterfaceFound:vector(packetBytes):sumweights 0
scalar SingleCell_Standalone.ue[9].ipv4.ip packetDropNoInterfaceFound:vector(packetBytes):mean -nan
scalar SingleCell_Standalone.ue[9].ipv4.ip packetDropNoInterfaceFound:vector(packetBytes):stddev nan
scalar SingleCell_Standalone.ue[9].ipv4.ip packetDropNoInterfaceFound:vector(packetBytes):min inf
scalar SingleCell_Standalone.ue[9].ipv4.ip packetDropNoInterfaceFound:vector(packetBytes):max -inf
scalar SingleCell_Standalone.ue[9].ipv4.ip packetDropNoInterfaceFound:vector(packetBytes):starttime nan
scalar SingleCell_Standalone.ue[9].ipv4.ip packetDropNoInterfaceFound:vector(packetBytes):endtime nan
scalar SingleCell_Standalone.ue[9].ipv4.ip packetDropNoRouteFound:vector(packetBytes):count 0
scalar SingleCell_Standalone.ue[9].ipv4.ip packetDropNoRouteFound:vector(packetBytes):sum 0
scalar SingleCell_Standalone.ue[9].ipv4.ip packetDropNoRouteFound:vector(packetBytes):sumweights 0
scalar SingleCell_Standalone.ue[9].ipv4.ip packetDropNoRouteFound:vector(packetBytes):mean -nan
scalar SingleCell_Standalone.ue[9].ipv4.ip packetDropNoRouteFound:vector(packetBytes):stddev nan
scalar SingleCell_Standalone.ue[9].ipv4.ip packetDropNoRouteFound:vector(packetBytes):min inf
scalar SingleCell_Standalone.ue[9].ipv4.ip packetDropNoRouteFound:vector(packetBytes):max -inf
scalar SingleCell_Standalone.ue[9].ipv4.ip packetDropNoRouteFound:vector(packetBytes):starttime nan
scalar SingleCell_Standalone.ue[9].ipv4.ip packetDropNoRouteFound:vector(packetBytes):endtime nan
scalar SingleCell_Standalone.ue[9].ipv4.ip packetDropUndefined:vector(packetBytes):count 0
scalar SingleCell_Standalone.ue[9].ipv4.ip packetDropUndefined:vector(packetBytes):sum 0
scalar SingleCell_Standalone.ue[9].ipv4.ip packetDropUndefined:vector(packetBytes):sumweights 0
scalar SingleCell_Standalone.ue[9].ipv4.ip packetDropUndefined:vector(packetBytes):mean -nan
scalar SingleCell_Standalone.ue[9].ipv4.ip packetDropUndefined:vector(packetBytes):stddev nan
scalar SingleCell_Standalone.ue[9].ipv4.ip packetDropUndefined:vector(packetBytes):min inf
scalar SingleCell_Standalone.ue[9].ipv4.ip packetDropUndefined:vector(packetBytes):max -inf
scalar SingleCell_Standalone.ue[9].ipv4.ip packetDropUndefined:vector(packetBytes):starttime nan
scalar SingleCell_Standalone.ue[9].ipv4.ip packetDropUndefined:vector(packetBytes):endtime nan
scalar SingleCell_Standalone.ue[9].ipv4.arp arpRequestSent:vector(packetBytes):count 0
scalar SingleCell_Standalone.ue[9].ipv4.arp arpRequestSent:vector(packetBytes):sum 0
scalar SingleCell_Standalone.ue[9].ipv4.arp arpRequestSent:vector(packetBytes):sumweights 0
scalar SingleCell_Standalone.ue[9].ipv4.arp arpRequestSent:vector(packetBytes):mean -nan
scalar SingleCell_Standalone.ue[9].ipv4.arp arpRequestSent:vector(packetBytes):stddev nan
scalar SingleCell_Standalone.ue[9].ipv4.arp arpRequestSent:vector(packetBytes):min inf
scalar SingleCell_Standalone.ue[9].ipv4.arp arpRequestSent:vector(packetBytes):max -inf
scalar SingleCell_Standalone.ue[9].ipv4.arp arpRequestSent:vector(packetBytes):starttime nan
scalar SingleCell_Standalone.ue[9].ipv4.arp arpRequestSent:vector(packetBytes):endtime nan
scalar SingleCell_Standalone.ue[9].ipv4.arp arpReplySent:vector(packetBytes):count 0
scalar SingleCell_Standalone.ue[9].ipv4.arp arpReplySent:vector(packetBytes):sum 0
scalar SingleCell_Standalone.ue[9].ipv4.arp arpReplySent:vector(packetBytes):sumweights 0
scalar SingleCell_Standalone.ue[9].ipv4.arp arpReplySent:vector(packetBytes):mean -nan
scalar SingleCell_Standalone.ue[9].ipv4.arp arpReplySent:vector(packetBytes):stddev nan
scalar SingleCell_Standalone.ue[9].ipv4.arp arpReplySent:vector(packetBytes):min inf
scalar SingleCell_Standalone.ue[9].ipv4.arp arpReplySent:vector(packetBytes):max -inf
scalar SingleCell_Standalone.ue[9].ipv4.arp arpReplySent:vector(packetBytes):starttime nan
scalar SingleCell_Standalone.ue[9].ipv4.arp arpReplySent:vector(packetBytes):endtime nan
scalar SingleCell_Standalone.ue[9].udp packetSent:vector(packetBytes):count 2500
scalar SingleCell_Standalone.ue[9].udp packetSent:vector(packetBytes):sum 5020000
scalar SingleCell_Standalone.ue[9].udp packetSent:vector(packetBytes):sumweights 2500
scalar SingleCell_Standalone.ue[9].udp packetSent:vector(packetBytes):mean 2008
scalar SingleCell_Standalone.ue[9].udp packetSent:vector(packetBytes):stddev 0
scalar SingleCell_Standalone.ue[9].udp packetSent:vector(packetBytes):min 2008
scalar SingleCell_Standalone.ue[9].udp packetSent:vector(packetBytes):max 2008
scalar SingleCell_Standalone.ue[9].udp packetSent:vector(packetBytes):starttime 0.00070439618500000016
scalar SingleCell_Standalone.ue[9].udp packetSent:vector(packetBytes):endtime 49.980704396185011
scalar SingleCell_Standalone.ue[9].udp packetReceived:vector(packetBytes):count 0
scalar SingleCell_Standalone.ue[9].udp packetReceived:vector(packetBytes):sum 0
scalar SingleCell_Standalone.ue[9].udp packetReceived:vector(packetBytes):sumweights 0
scalar SingleCell_Standalone.ue[9].udp packetReceived:vector(packetBytes):mean -nan
scalar SingleCell_Standalone.ue[9].udp packetReceived:vector(packetBytes):stddev nan
scalar SingleCell_Standalone.ue[9].udp packetReceived:vector(packetBytes):min inf
scalar SingleCell_Standalone.ue[9].udp packetReceived:vector(packetBytes):max -inf
scalar SingleCell_Standalone.ue[9].udp packetReceived:vector(packetBytes):starttime nan
scalar SingleCell_Standalone.ue[9].udp packetReceived:vector(packetBytes):endtime nan
scalar SingleCell_Standalone.ue[9].udp passedUpPk:vector(count):count 1
scalar SingleCell_Standalone.ue[9].udp passedUpPk:vector(count):sum 0
scalar SingleCell_Standalone.ue[9].udp passedUpPk:vector(count):sumweights 1
scalar SingleCell_Standalone.ue[9].udp passedUpPk:vector(count):mean 0
scalar SingleCell_Standalone.ue[9].udp passedUpPk:vector(count):stddev nan
scalar SingleCell_Standalone.ue[9].udp passedUpPk:vector(count):min 0
scalar SingleCell_Standalone.ue[9].udp passedUpPk:vector(count):max 0
scalar SingleCell_Standalone.ue[9].udp passedUpPk:vector(count):starttime 0
scalar SingleCell_Standalone.ue[9].udp passedUpPk:vector(count):endtime 0
scalar SingleCell_Standalone.ue[9].udp droppedPkWrongPort:vector(count):count 1
scalar SingleCell_Standalone.ue[9].udp droppedPkWrongPort:vector(count):sum 0
scalar SingleCell_Standalone.ue[9].udp droppedPkWrongPort:vector(count):sumweights 1
scalar SingleCell_Standalone.ue[9].udp droppedPkWrongPort:vector(count):mean 0
scalar SingleCell_Standalone.ue[9].udp droppedPkWrongPort:vector(count):stddev nan
scalar SingleCell_Standalone.ue[9].udp droppedPkWrongPort:vector(count):min 0
scalar SingleCell_Standalone.ue[9].udp droppedPkWrongPort:vector(count):max 0
scalar SingleCell_Standalone.ue[9].udp droppedPkWrongPort:vector(count):starttime 0
scalar SingleCell_Standalone.ue[9].udp droppedPkWrongPort:vector(count):endtime 0
scalar SingleCell_Standalone.ue[9].udp droppedPkBadChecksum:vector(count):count 1
scalar SingleCell_Standalone.ue[9].udp droppedPkBadChecksum:vector(count):sum 0
scalar SingleCell_Standalone.ue[9].udp droppedPkBadChecksum:vector(count):sumweights 1
scalar SingleCell_Standalone.ue[9].udp droppedPkBadChecksum:vector(count):mean 0
scalar SingleCell_Standalone.ue[9].udp droppedPkBadChecksum:vector(count):stddev nan
scalar SingleCell_Standalone.ue[9].udp droppedPkBadChecksum:vector(count):min 0
scalar SingleCell_Standalone.ue[9].udp droppedPkBadChecksum:vector(count):max 0
scalar SingleCell_Standalone.ue[9].udp droppedPkBadChecksum:vector(count):starttime 0
scalar SingleCell_Standalone.ue[9].udp droppedPkBadChecksum:vector(count):endtime 0
scalar SingleCell_Standalone.ue[9].app[0] cbrGeneratedThroughput:vector:count 1
scalar SingleCell_Standalone.ue[9].app[0] cbrGeneratedThroughput:vector:sum 100000
scalar SingleCell_Standalone.ue[9].app[0] cbrGeneratedThroughput:vector:sumweights 1
scalar SingleCell_Standalone.ue[9].app[0] cbrGeneratedThroughput:vector:mean 100000
scalar SingleCell_Standalone.ue[9].app[0] cbrGeneratedThroughput:vector:stddev nan
scalar SingleCell_Standalone.ue[9].app[0] cbrGeneratedThroughput:vector:min 100000
scalar SingleCell_Standalone.ue[9].app[0] cbrGeneratedThroughput:vector:max 100000
scalar SingleCell_Standalone.ue[9].app[0] cbrGeneratedThroughput:vector:starttime 50
scalar SingleCell_Standalone.ue[9].app[0] cbrGeneratedThroughput:vector:endtime 50
scalar SingleCell_Standalone.ue[9].app[0] cbrSentPkt:vector:count 0
scalar SingleCell_Standalone.ue[9].app[0] cbrSentPkt:vector:sum 0
scalar SingleCell_Standalone.ue[9].app[0] cbrSentPkt:vector:sumweights 0
scalar SingleCell_Standalone.ue[9].app[0] cbrSentPkt:vector:mean -nan
scalar SingleCell_Standalone.ue[9].app[0] cbrSentPkt:vector:stddev nan
scalar SingleCell_Standalone.ue[9].app[0] cbrSentPkt:vector:min inf
scalar SingleCell_Standalone.ue[9].app[0] cbrSentPkt:vector:max -inf
scalar SingleCell_Standalone.ue[9].app[0] cbrSentPkt:vector:starttime nan
scalar SingleCell_Standalone.ue[9].app[0] cbrSentPkt:vector:endtime nan

