version 3
run SingleCell-DL-0-20260710-11:29:16-707805
attr configname SingleCell-DL
attr datetime 20260710-11:29:16
attr datetimef 20260710-112916
attr experiment SingleCell-DL
attr inifile omnetpp.ini
attr iterationvars $numUEs=5
attr iterationvarsd numUEs=5
attr iterationvarsf numUEs=5-
attr measurement $numUEs=5
attr network simu5g.simulations.lte.networks.SingleCell
attr processid 707805
attr repetition 0
attr replication #0
attr resultdir results
attr runnumber 0
attr seedset 0
itervar numUEs 5
config **.param-recording false
config image-path /home/andras/projects/Simu5G-fork/simu5g-fork/images
config output-scalar-file results/omnetpp.ini-SingleCell-DL-#0.sca
config output-scalar-precision 17
config output-vector-file results/omnetpp.ini-SingleCell-DL-#0.vec
config output-vector-precision 17
config record-eventlog false
config sim-time-limit 5s
config extends SingleCell
config *.ue[*].app[0].typename VoipReceiver
config *.server.app[*].destAddress "\"ue[\"+string(ancestorIndex(0))+\"]\""
config *.server.app[*].localPort 3088+ancestorIndex(0)
config *.server.app[*].typename VoipSender
config *.server.app[*].startTime uniform(0s,0.02s)
config network simu5g.simulations.lte.networks.SingleCell
config *.numUe 5
config *.ue[*].numApps 1
config *.server.numApps 5
config **.ue[*].servingNodeId 1
config *.eNB.mobility.initFromDisplayString false
config *.eNB.mobility.initialX 300m
config *.eNB.mobility.initialY 300m
config *.ue[*].mobility.constraintAreaMaxX 600m
config *.ue[*].mobility.constraintAreaMaxY 600m
config *.ue[*].mobility.constraintAreaMinX 0m
config *.ue[*].mobility.constraintAreaMinY 0m
config *.ue[*].mobility.initFromDisplayString false
config *.ue[*].mobility.initialX uniform(0m,600m)
config *.ue[*].mobility.initialY uniform(0m,600m)
config *.ue[*].mobility.speed 1mps
config *.ue[*].mobility.typename LinearMobility
config print-undisposed true
config **.vector-recording false
config **.routingRecorder.enabled false
config sim-time-limit 5s
config warmup-period 2s
config repeat 1
config **.mobility.constraintAreaMinZ 0m
config **.mobility.constraintAreaMaxZ 0m
config **.rbAllocationType "\"localized\""
config **.numBands 6
config output-scalar-file results/SingleCell-DL/0.sca
config output-vector-file results/SingleCell-DL/0.vec
config seed-set 0
config *.configurator.config "xmldoc(\"./demo.xml\")"

scalar SingleCell.server.lo[0].lo rcvdPkFromHl:count 0
scalar SingleCell.server.lo[0].lo rcvdPkFromHl:sum(packetBytes) 0
scalar SingleCell.server.lo[0].lo passedUpPk:count 0
scalar SingleCell.server.lo[0].lo passedUpPk:sum(packetBytes) 0
scalar SingleCell.server.lo[0] packetDropInterfaceDown:count 0
scalar SingleCell.server.lo[0] packetDropInterfaceDown:sum(packetBytes) 0
scalar SingleCell.server.lo[0] packetDropNoCarrier:count 0
scalar SingleCell.server.lo[0] packetDropNoCarrier:sum(packetBytes) 0
scalar SingleCell.server.ppp[0].queue queueLength:last 0
scalar SingleCell.server.ppp[0].queue queueLength:max 0
scalar SingleCell.server.ppp[0].queue queueLength:timeavg 0
scalar SingleCell.server.ppp[0].queue queueBitLength:last 0
scalar SingleCell.server.ppp[0].queue queueBitLength:max 0
scalar SingleCell.server.ppp[0].queue queueBitLength:timeavg 0
scalar SingleCell.server.ppp[0].queue outgoingPackets:count 619
scalar SingleCell.server.ppp[0].queue outgoingPacketLengths:sum 336736
scalar SingleCell.server.ppp[0].queue incomingPackets:count 619
scalar SingleCell.server.ppp[0].queue incomingPacketLengths:sum 336736
scalar SingleCell.server.ppp[0].queue droppedPacketsQueueOverflow:count 0
scalar SingleCell.server.ppp[0].queue droppedPacketLengthsQueueOverflow:sum 0
scalar SingleCell.server.ppp[0].ppp transmissionState:timeavg 1.2386241035613687e-05
scalar SingleCell.server.ppp[0].ppp rxPkOk:count 0
scalar SingleCell.server.ppp[0].ppp rxPkOk:sum(packetBytes) 0
scalar SingleCell.server.ppp[0].ppp txPk:count 619
scalar SingleCell.server.ppp[0].ppp txPk:sum(packetBytes) 46425
scalar SingleCell.server.ppp[0].ppp rcvdPkFromHl:count 619
scalar SingleCell.server.ppp[0].ppp rcvdPkFromHl:sum(packetBytes) 42092
scalar SingleCell.server.ppp[0].ppp passedUpPk:count 0
scalar SingleCell.server.ppp[0].ppp passedUpPk:sum(packetBytes) 0
scalar SingleCell.server.ppp[0].ppp packetDropIncorrectlyReceived:count 0
scalar SingleCell.server.ppp[0].ppp packetDropIncorrectlyReceived:sum(packetBytes) 0
scalar SingleCell.server.ppp[0].ppp packetDropInterfaceDown:count 0
scalar SingleCell.server.ppp[0].ppp packetDropInterfaceDown:sum(packetBytes) 0
scalar SingleCell.server.ppp[0] packetDropInterfaceDown:count 0
scalar SingleCell.server.ppp[0] packetDropInterfaceDown:sum(packetBytes) 0
scalar SingleCell.server.ppp[0] packetDropNoCarrier:count 0
scalar SingleCell.server.ppp[0] packetDropNoCarrier:sum(packetBytes) 0
scalar SingleCell.server.ipv4.ip packetDropAddressResolutionFailed:count 0
scalar SingleCell.server.ipv4.ip packetDropAddressResolutionFailed:sum(packetBytes) 0
scalar SingleCell.server.ipv4.ip packetDropHopLimitReached:count 0
scalar SingleCell.server.ipv4.ip packetDropHopLimitReached:sum(packetBytes) 0
scalar SingleCell.server.ipv4.ip packetDropForwardingDisabled:count 0
scalar SingleCell.server.ipv4.ip packetDropForwardingDisabled:sum(packetBytes) 0
scalar SingleCell.server.ipv4.ip packetDropNoInterfaceFound:count 0
scalar SingleCell.server.ipv4.ip packetDropNoInterfaceFound:sum(packetBytes) 0
scalar SingleCell.server.ipv4.ip packetDropNoRouteFound:count 0
scalar SingleCell.server.ipv4.ip packetDropNoRouteFound:sum(packetBytes) 0
scalar SingleCell.server.ipv4.ip packetDropUndefined:count 0
scalar SingleCell.server.ipv4.ip packetDropUndefined:sum(packetBytes) 0
scalar SingleCell.server.ipv4.arp arpResolutionFailed:count 0
scalar SingleCell.server.ipv4.arp arpResolutionCompleted:count 0
scalar SingleCell.server.ipv4.arp arpResolutionInitiated:count 0
scalar SingleCell.server.ipv4.arp arpReplySent:count 0
scalar SingleCell.server.ipv4.arp arpReplySent:sum(packetBytes) 0
scalar SingleCell.server.ipv4.arp arpRequestSent:count 0
scalar SingleCell.server.ipv4.arp arpRequestSent:sum(packetBytes) 0
scalar SingleCell.server.udp packetReceived:count 0
scalar SingleCell.server.udp packetReceived:sum(packetBytes) 0
scalar SingleCell.server.udp packetSent:count 619
scalar SingleCell.server.udp packetSent:sum(packetBytes) 29712
scalar SingleCell.server.udp passedUpPk:count 0
scalar SingleCell.server.udp droppedPkWrongPort:count 0
scalar SingleCell.server.udp droppedPkBadChecksum:count 0
scalar SingleCell.server.app[0] voipGeneratedThroughput:simu5g_rateavg 105428.44734139969
scalar SingleCell.server.app[1] voipGeneratedThroughput:simu5g_rateavg 131219.71140386016
scalar SingleCell.server.app[2] voipGeneratedThroughput:simu5g_rateavg 300120.75579685514
scalar SingleCell.server.app[3] voipGeneratedThroughput:simu5g_rateavg 3188.73517546312
scalar SingleCell.server.app[4] voipGeneratedThroughput:simu5g_rateavg 145982.04351217512
scalar SingleCell.router.lo[0].lo rcvdPkFromHl:count 0
scalar SingleCell.router.lo[0].lo rcvdPkFromHl:sum(packetBytes) 0
scalar SingleCell.router.lo[0].lo passedUpPk:count 0
scalar SingleCell.router.lo[0].lo passedUpPk:sum(packetBytes) 0
scalar SingleCell.router.lo[0] packetDropInterfaceDown:count 0
scalar SingleCell.router.lo[0] packetDropInterfaceDown:sum(packetBytes) 0
scalar SingleCell.router.lo[0] packetDropNoCarrier:count 0
scalar SingleCell.router.lo[0] packetDropNoCarrier:sum(packetBytes) 0
scalar SingleCell.router.ppp[0].queue queueLength:last 0
scalar SingleCell.router.ppp[0].queue queueLength:max 0
scalar SingleCell.router.ppp[0].queue queueLength:timeavg 0
scalar SingleCell.router.ppp[0].queue queueBitLength:last 0
scalar SingleCell.router.ppp[0].queue queueBitLength:max 0
scalar SingleCell.router.ppp[0].queue queueBitLength:timeavg 0
scalar SingleCell.router.ppp[0].queue outgoingPackets:count 0
scalar SingleCell.router.ppp[0].queue outgoingPacketLengths:sum 0
scalar SingleCell.router.ppp[0].queue incomingPackets:count 0
scalar SingleCell.router.ppp[0].queue incomingPacketLengths:sum 0
scalar SingleCell.router.ppp[0].queue droppedPacketsQueueOverflow:count 0
scalar SingleCell.router.ppp[0].queue droppedPacketLengthsQueueOverflow:sum 0
scalar SingleCell.router.ppp[0].ppp transmissionState:timeavg -nan
scalar SingleCell.router.ppp[0].ppp rxPkOk:count 619
scalar SingleCell.router.ppp[0].ppp rxPkOk:sum(packetBytes) 46425
scalar SingleCell.router.ppp[0].ppp txPk:count 0
scalar SingleCell.router.ppp[0].ppp txPk:sum(packetBytes) 0
scalar SingleCell.router.ppp[0].ppp rcvdPkFromHl:count 0
scalar SingleCell.router.ppp[0].ppp rcvdPkFromHl:sum(packetBytes) 0
scalar SingleCell.router.ppp[0].ppp passedUpPk:count 619
scalar SingleCell.router.ppp[0].ppp passedUpPk:sum(packetBytes) 42092
scalar SingleCell.router.ppp[0].ppp packetDropIncorrectlyReceived:count 0
scalar SingleCell.router.ppp[0].ppp packetDropIncorrectlyReceived:sum(packetBytes) 0
scalar SingleCell.router.ppp[0].ppp packetDropInterfaceDown:count 0
scalar SingleCell.router.ppp[0].ppp packetDropInterfaceDown:sum(packetBytes) 0
scalar SingleCell.router.ppp[0] packetDropInterfaceDown:count 0
scalar SingleCell.router.ppp[0] packetDropInterfaceDown:sum(packetBytes) 0
scalar SingleCell.router.ppp[0] packetDropNoCarrier:count 0
scalar SingleCell.router.ppp[0] packetDropNoCarrier:sum(packetBytes) 0
scalar SingleCell.router.ppp[1].queue queueLength:last 0
scalar SingleCell.router.ppp[1].queue queueLength:max 0
scalar SingleCell.router.ppp[1].queue queueLength:timeavg 0
scalar SingleCell.router.ppp[1].queue queueBitLength:last 0
scalar SingleCell.router.ppp[1].queue queueBitLength:max 0
scalar SingleCell.router.ppp[1].queue queueBitLength:timeavg 0
scalar SingleCell.router.ppp[1].queue outgoingPackets:count 619
scalar SingleCell.router.ppp[1].queue outgoingPacketLengths:sum 336736
scalar SingleCell.router.ppp[1].queue incomingPackets:count 619
scalar SingleCell.router.ppp[1].queue incomingPacketLengths:sum 336736
scalar SingleCell.router.ppp[1].queue droppedPacketsQueueOverflow:count 0
scalar SingleCell.router.ppp[1].queue droppedPacketLengthsQueueOverflow:sum 0
scalar SingleCell.router.ppp[1].ppp transmissionState:timeavg 1.2386241490004827e-05
scalar SingleCell.router.ppp[1].ppp rxPkOk:count 0
scalar SingleCell.router.ppp[1].ppp rxPkOk:sum(packetBytes) 0
scalar SingleCell.router.ppp[1].ppp txPk:count 619
scalar SingleCell.router.ppp[1].ppp txPk:sum(packetBytes) 46425
scalar SingleCell.router.ppp[1].ppp rcvdPkFromHl:count 619
scalar SingleCell.router.ppp[1].ppp rcvdPkFromHl:sum(packetBytes) 42092
scalar SingleCell.router.ppp[1].ppp passedUpPk:count 0
scalar SingleCell.router.ppp[1].ppp passedUpPk:sum(packetBytes) 0
scalar SingleCell.router.ppp[1].ppp packetDropIncorrectlyReceived:count 0
scalar SingleCell.router.ppp[1].ppp packetDropIncorrectlyReceived:sum(packetBytes) 0
scalar SingleCell.router.ppp[1].ppp packetDropInterfaceDown:count 0
scalar SingleCell.router.ppp[1].ppp packetDropInterfaceDown:sum(packetBytes) 0
scalar SingleCell.router.ppp[1] packetDropInterfaceDown:count 0
scalar SingleCell.router.ppp[1] packetDropInterfaceDown:sum(packetBytes) 0
scalar SingleCell.router.ppp[1] packetDropNoCarrier:count 0
scalar SingleCell.router.ppp[1] packetDropNoCarrier:sum(packetBytes) 0
scalar SingleCell.router.ipv4.ip packetDropAddressResolutionFailed:count 0
scalar SingleCell.router.ipv4.ip packetDropAddressResolutionFailed:sum(packetBytes) 0
scalar SingleCell.router.ipv4.ip packetDropHopLimitReached:count 0
scalar SingleCell.router.ipv4.ip packetDropHopLimitReached:sum(packetBytes) 0
scalar SingleCell.router.ipv4.ip packetDropForwardingDisabled:count 0
scalar SingleCell.router.ipv4.ip packetDropForwardingDisabled:sum(packetBytes) 0
scalar SingleCell.router.ipv4.ip packetDropNoInterfaceFound:count 0
scalar SingleCell.router.ipv4.ip packetDropNoInterfaceFound:sum(packetBytes) 0
scalar SingleCell.router.ipv4.ip packetDropNoRouteFound:count 0
scalar SingleCell.router.ipv4.ip packetDropNoRouteFound:sum(packetBytes) 0
scalar SingleCell.router.ipv4.ip packetDropUndefined:count 0
scalar SingleCell.router.ipv4.ip packetDropUndefined:sum(packetBytes) 0
scalar SingleCell.router.ipv4.arp arpResolutionFailed:count 0
scalar SingleCell.router.ipv4.arp arpResolutionCompleted:count 0
scalar SingleCell.router.ipv4.arp arpResolutionInitiated:count 0
scalar SingleCell.router.ipv4.arp arpReplySent:count 0
scalar SingleCell.router.ipv4.arp arpReplySent:sum(packetBytes) 0
scalar SingleCell.router.ipv4.arp arpRequestSent:count 0
scalar SingleCell.router.ipv4.arp arpRequestSent:sum(packetBytes) 0
scalar SingleCell.pgw.lo[0].lo rcvdPkFromHl:count 0
scalar SingleCell.pgw.lo[0].lo rcvdPkFromHl:sum(packetBytes) 0
scalar SingleCell.pgw.lo[0].lo passedUpPk:count 0
scalar SingleCell.pgw.lo[0].lo passedUpPk:sum(packetBytes) 0
scalar SingleCell.pgw.lo[0] packetDropInterfaceDown:count 0
scalar SingleCell.pgw.lo[0] packetDropInterfaceDown:sum(packetBytes) 0
scalar SingleCell.pgw.lo[0] packetDropNoCarrier:count 0
scalar SingleCell.pgw.lo[0] packetDropNoCarrier:sum(packetBytes) 0
scalar SingleCell.pgw.ppp[0].queue queueLength:last 0
scalar SingleCell.pgw.ppp[0].queue queueLength:max 0
scalar SingleCell.pgw.ppp[0].queue queueLength:timeavg 0
scalar SingleCell.pgw.ppp[0].queue queueBitLength:last 0
scalar SingleCell.pgw.ppp[0].queue queueBitLength:max 0
scalar SingleCell.pgw.ppp[0].queue queueBitLength:timeavg 0
scalar SingleCell.pgw.ppp[0].queue outgoingPackets:count 619
scalar SingleCell.pgw.ppp[0].queue outgoingPacketLengths:sum 515008
scalar SingleCell.pgw.ppp[0].queue incomingPackets:count 619
scalar SingleCell.pgw.ppp[0].queue incomingPacketLengths:sum 515008
scalar SingleCell.pgw.ppp[0].queue droppedPacketsQueueOverflow:count 0
scalar SingleCell.pgw.ppp[0].queue droppedPacketLengthsQueueOverflow:sum 0
scalar SingleCell.pgw.ppp[0].ppp transmissionState:timeavg 1.8331638077705952e-05
scalar SingleCell.pgw.ppp[0].ppp rxPkOk:count 0
scalar SingleCell.pgw.ppp[0].ppp rxPkOk:sum(packetBytes) 0
scalar SingleCell.pgw.ppp[0].ppp txPk:count 619
scalar SingleCell.pgw.ppp[0].ppp txPk:sum(packetBytes) 68709
scalar SingleCell.pgw.ppp[0].ppp rcvdPkFromHl:count 619
scalar SingleCell.pgw.ppp[0].ppp rcvdPkFromHl:sum(packetBytes) 64376
scalar SingleCell.pgw.ppp[0].ppp passedUpPk:count 0
scalar SingleCell.pgw.ppp[0].ppp passedUpPk:sum(packetBytes) 0
scalar SingleCell.pgw.ppp[0].ppp packetDropIncorrectlyReceived:count 0
scalar SingleCell.pgw.ppp[0].ppp packetDropIncorrectlyReceived:sum(packetBytes) 0
scalar SingleCell.pgw.ppp[0].ppp packetDropInterfaceDown:count 0
scalar SingleCell.pgw.ppp[0].ppp packetDropInterfaceDown:sum(packetBytes) 0
scalar SingleCell.pgw.ppp[0] packetDropInterfaceDown:count 0
scalar SingleCell.pgw.ppp[0] packetDropInterfaceDown:sum(packetBytes) 0
scalar SingleCell.pgw.ppp[0] packetDropNoCarrier:count 0
scalar SingleCell.pgw.ppp[0] packetDropNoCarrier:sum(packetBytes) 0
scalar SingleCell.pgw.ipv4.ip packetDropAddressResolutionFailed:count 0
scalar SingleCell.pgw.ipv4.ip packetDropAddressResolutionFailed:sum(packetBytes) 0
scalar SingleCell.pgw.ipv4.ip packetDropHopLimitReached:count 0
scalar SingleCell.pgw.ipv4.ip packetDropHopLimitReached:sum(packetBytes) 0
scalar SingleCell.pgw.ipv4.ip packetDropForwardingDisabled:count 0
scalar SingleCell.pgw.ipv4.ip packetDropForwardingDisabled:sum(packetBytes) 0
scalar SingleCell.pgw.ipv4.ip packetDropNoInterfaceFound:count 0
scalar SingleCell.pgw.ipv4.ip packetDropNoInterfaceFound:sum(packetBytes) 0
scalar SingleCell.pgw.ipv4.ip packetDropNoRouteFound:count 0
scalar SingleCell.pgw.ipv4.ip packetDropNoRouteFound:sum(packetBytes) 0
scalar SingleCell.pgw.ipv4.ip packetDropUndefined:count 0
scalar SingleCell.pgw.ipv4.ip packetDropUndefined:sum(packetBytes) 0
scalar SingleCell.pgw.ipv4.arp arpResolutionFailed:count 0
scalar SingleCell.pgw.ipv4.arp arpResolutionCompleted:count 0
scalar SingleCell.pgw.ipv4.arp arpResolutionInitiated:count 0
scalar SingleCell.pgw.ipv4.arp arpReplySent:count 0
scalar SingleCell.pgw.ipv4.arp arpReplySent:sum(packetBytes) 0
scalar SingleCell.pgw.ipv4.arp arpRequestSent:count 0
scalar SingleCell.pgw.ipv4.arp arpRequestSent:sum(packetBytes) 0
scalar SingleCell.pgw.pppIf.queue queueLength:last 0
scalar SingleCell.pgw.pppIf.queue queueLength:max 0
scalar SingleCell.pgw.pppIf.queue queueLength:timeavg 0
scalar SingleCell.pgw.pppIf.queue queueBitLength:last 0
scalar SingleCell.pgw.pppIf.queue queueBitLength:max 0
scalar SingleCell.pgw.pppIf.queue queueBitLength:timeavg 0
scalar SingleCell.pgw.pppIf.queue outgoingPackets:count 0
scalar SingleCell.pgw.pppIf.queue outgoingPacketLengths:sum 0
scalar SingleCell.pgw.pppIf.queue incomingPackets:count 0
scalar SingleCell.pgw.pppIf.queue incomingPacketLengths:sum 0
scalar SingleCell.pgw.pppIf.queue droppedPacketsQueueOverflow:count 0
scalar SingleCell.pgw.pppIf.queue droppedPacketLengthsQueueOverflow:sum 0
scalar SingleCell.pgw.pppIf.ppp transmissionState:timeavg -nan
scalar SingleCell.pgw.pppIf.ppp rxPkOk:count 619
scalar SingleCell.pgw.pppIf.ppp rxPkOk:sum(packetBytes) 46425
scalar SingleCell.pgw.pppIf.ppp txPk:count 0
scalar SingleCell.pgw.pppIf.ppp txPk:sum(packetBytes) 0
scalar SingleCell.pgw.pppIf.ppp rcvdPkFromHl:count 0
scalar SingleCell.pgw.pppIf.ppp rcvdPkFromHl:sum(packetBytes) 0
scalar SingleCell.pgw.pppIf.ppp passedUpPk:count 619
scalar SingleCell.pgw.pppIf.ppp passedUpPk:sum(packetBytes) 42092
scalar SingleCell.pgw.pppIf.ppp packetDropIncorrectlyReceived:count 0
scalar SingleCell.pgw.pppIf.ppp packetDropIncorrectlyReceived:sum(packetBytes) 0
scalar SingleCell.pgw.pppIf.ppp packetDropInterfaceDown:count 0
scalar SingleCell.pgw.pppIf.ppp packetDropInterfaceDown:sum(packetBytes) 0
scalar SingleCell.pgw.pppIf packetDropInterfaceDown:count 0
scalar SingleCell.pgw.pppIf packetDropInterfaceDown:sum(packetBytes) 0
scalar SingleCell.pgw.pppIf packetDropNoCarrier:count 0
scalar SingleCell.pgw.pppIf packetDropNoCarrier:sum(packetBytes) 0
scalar SingleCell.pgw.udp packetReceived:count 0
scalar SingleCell.pgw.udp packetReceived:sum(packetBytes) 0
scalar SingleCell.pgw.udp packetSent:count 619
scalar SingleCell.pgw.udp packetSent:sum(packetBytes) 51996
scalar SingleCell.pgw.udp passedUpPk:count 0
scalar SingleCell.pgw.udp droppedPkWrongPort:count 0
scalar SingleCell.pgw.udp droppedPkBadChecksum:count 0
scalar SingleCell.eNB.cellularNic.pdcp sentPacketToLowerLayer:count 619
scalar SingleCell.eNB.cellularNic.pdcp sentPacketToLowerLayer:sum(packetBytes) 42711
scalar SingleCell.eNB.cellularNic.pdcp sentPacketToUpperLayer:count 0
scalar SingleCell.eNB.cellularNic.pdcp sentPacketToUpperLayer:sum(packetBytes) 0
scalar SingleCell.eNB.cellularNic.pdcp receivedPacketFromLowerLayer:count 0
scalar SingleCell.eNB.cellularNic.pdcp receivedPacketFromLowerLayer:sum(packetBytes) 0
scalar SingleCell.eNB.cellularNic.pdcp receivedPacketFromUpperLayer:count 619
scalar SingleCell.eNB.cellularNic.pdcp receivedPacketFromUpperLayer:sum(packetBytes) 42092
scalar SingleCell.eNB.cellularNic.rlc.tm rlcPacketLossUl:mean -nan
scalar SingleCell.eNB.cellularNic.rlc.tm rlcPacketLossUl:sum 0
scalar SingleCell.eNB.cellularNic.rlc.tm rlcPacketLossDl:mean -nan
scalar SingleCell.eNB.cellularNic.rlc.tm rlcPacketLossDl:sum 0
scalar SingleCell.eNB.cellularNic.rlc.tm sentPacketToLowerLayer:count 0
scalar SingleCell.eNB.cellularNic.rlc.tm sentPacketToLowerLayer:sum(packetBytes) 0
scalar SingleCell.eNB.cellularNic.rlc.tm sentPacketToUpperLayer:count 0
scalar SingleCell.eNB.cellularNic.rlc.tm sentPacketToUpperLayer:sum(packetBytes) 0
scalar SingleCell.eNB.cellularNic.rlc.tm receivedPacketFromLowerLayer:count 0
scalar SingleCell.eNB.cellularNic.rlc.tm receivedPacketFromLowerLayer:sum(packetBytes) 0
scalar SingleCell.eNB.cellularNic.rlc.tm receivedPacketFromUpperLayer:count 0
scalar SingleCell.eNB.cellularNic.rlc.tm receivedPacketFromUpperLayer:sum(packetBytes) 0
scalar SingleCell.eNB.cellularNic.rlc.um rlcCellThroughputUl:simu5g_rateavg -nan
scalar SingleCell.eNB.cellularNic.rlc.um rlcCellThroughputDl:simu5g_rateavg 9095608.4727705829
scalar SingleCell.eNB.cellularNic.rlc.um rlcPduThroughputUl:simu5g_rateavg -nan
scalar SingleCell.eNB.cellularNic.rlc.um rlcPduThroughputDl:simu5g_rateavg -nan
scalar SingleCell.eNB.cellularNic.rlc.um rlcPduDelayUl:mean -nan
scalar SingleCell.eNB.cellularNic.rlc.um rlcPduDelayDl:mean -nan
scalar SingleCell.eNB.cellularNic.rlc.um rlcThroughputUl:simu5g_rateavg -nan
scalar SingleCell.eNB.cellularNic.rlc.um rlcThroughputDl:simu5g_rateavg -nan
scalar SingleCell.eNB.cellularNic.rlc.um rlcDelayUl:mean -nan
scalar SingleCell.eNB.cellularNic.rlc.um rlcDelayDl:mean -nan
scalar SingleCell.eNB.cellularNic.rlc.um sentPacketToLowerLayer:count 619
scalar SingleCell.eNB.cellularNic.rlc.um sentPacketToLowerLayer:sum(packetBytes) 43949
scalar SingleCell.eNB.cellularNic.rlc.um sentPacketToUpperLayer:count 0
scalar SingleCell.eNB.cellularNic.rlc.um sentPacketToUpperLayer:sum(packetBytes) 0
scalar SingleCell.eNB.cellularNic.rlc.um receivedPacketFromLowerLayer:count 0
scalar SingleCell.eNB.cellularNic.rlc.um receivedPacketFromLowerLayer:sum(packetBytes) 0
scalar SingleCell.eNB.cellularNic.rlc.um receivedPacketFromUpperLayer:count 619
scalar SingleCell.eNB.cellularNic.rlc.um receivedPacketFromUpperLayer:sum(packetBytes) 42711
scalar SingleCell.eNB.cellularNic.rlc.am rlcPacketLossTotal:mean -nan
scalar SingleCell.eNB.cellularNic.rlc.am rlcCellThroughputUl:simu5g_rateavg -nan
scalar SingleCell.eNB.cellularNic.rlc.am rlcCellThroughputDl:simu5g_rateavg -nan
scalar SingleCell.eNB.cellularNic.rlc.am rlcPduThroughputUl:simu5g_rateavg -nan
scalar SingleCell.eNB.cellularNic.rlc.am rlcPduThroughputDl:simu5g_rateavg -nan
scalar SingleCell.eNB.cellularNic.rlc.am rlcPduDelayUl:mean -nan
scalar SingleCell.eNB.cellularNic.rlc.am rlcPduDelayDl:mean -nan
scalar SingleCell.eNB.cellularNic.rlc.am rlcThroughputUl:simu5g_rateavg -nan
scalar SingleCell.eNB.cellularNic.rlc.am rlcThroughputDl:simu5g_rateavg -nan
scalar SingleCell.eNB.cellularNic.rlc.am rlcDelayUl:mean -nan
scalar SingleCell.eNB.cellularNic.rlc.am rlcDelayDl:mean -nan
scalar SingleCell.eNB.cellularNic.rlc.am rlcPduPacketLossUl:mean -nan
scalar SingleCell.eNB.cellularNic.rlc.am rlcPduPacketLossDl:mean -nan
scalar SingleCell.eNB.cellularNic.rlc.am rlcPacketLossUl:mean -nan
scalar SingleCell.eNB.cellularNic.rlc.am rlcPacketLossDl:mean -nan
scalar SingleCell.eNB.cellularNic.rlc.am rlcCellPacketLossUl:mean -nan
scalar SingleCell.eNB.cellularNic.rlc.am rlcCellPacketLossDl:mean -nan
scalar SingleCell.eNB.cellularNic.mac avgServedBlocksUl:mean 0
scalar SingleCell.eNB.cellularNic.mac avgServedBlocksDl:mean 0.20659780073308898
scalar SingleCell.eNB.cellularNic.mac harqTxAttemptsUl:mean -nan
scalar SingleCell.eNB.cellularNic.mac harqTxAttemptsDl:mean -nan
scalar SingleCell.eNB.cellularNic.mac harqErrorRate_4th_Ul:mean -nan
scalar SingleCell.eNB.cellularNic.mac harqErrorRate_4th_Dl:mean -nan
scalar SingleCell.eNB.cellularNic.mac harqErrorRate_3rd_Ul:mean -nan
scalar SingleCell.eNB.cellularNic.mac harqErrorRate_3rd_Dl:mean -nan
scalar SingleCell.eNB.cellularNic.mac harqErrorRate_2nd_Ul:mean -nan
scalar SingleCell.eNB.cellularNic.mac harqErrorRate_2nd_Dl:mean -nan
scalar SingleCell.eNB.cellularNic.mac harqErrorRate_1st_Ul:mean -nan
scalar SingleCell.eNB.cellularNic.mac harqErrorRate_1st_Dl:mean -nan
scalar SingleCell.eNB.cellularNic.mac harqErrorRateUl:mean -nan
scalar SingleCell.eNB.cellularNic.mac harqErrorRateDl:mean -nan
scalar SingleCell.eNB.cellularNic.mac macCellPacketLossUl:mean -nan
scalar SingleCell.eNB.cellularNic.mac macCellPacketLossDl:mean 0
scalar SingleCell.eNB.cellularNic.mac macPacketLossUl:mean -nan
scalar SingleCell.eNB.cellularNic.mac macPacketLossDl:mean -nan
scalar SingleCell.eNB.cellularNic.mac macThroughputUl:simu5g_rateavg -nan
scalar SingleCell.eNB.cellularNic.mac macThroughputDl:simu5g_rateavg -nan
scalar SingleCell.eNB.cellularNic.mac macDelayUl:mean -nan
scalar SingleCell.eNB.cellularNic.mac macDelayDl:mean -nan
scalar SingleCell.eNB.cellularNic.mac macCellThroughputUl:simu5g_rateavg -nan
scalar SingleCell.eNB.cellularNic.mac macCellThroughputDl:simu5g_rateavg 9622890.1233659871
scalar SingleCell.eNB.cellularNic.mac sentPacketToLowerLayer:count 620
scalar SingleCell.eNB.cellularNic.mac sentPacketToLowerLayer:sum(packetBytes) 45260
scalar SingleCell.eNB.cellularNic.mac sentPacketToUpperLayer:count 619
scalar SingleCell.eNB.cellularNic.mac sentPacketToUpperLayer:sum(packetBytes) 619
scalar SingleCell.eNB.cellularNic.mac receivedPacketFromLowerLayer:count 3124
scalar SingleCell.eNB.cellularNic.mac receivedPacketFromLowerLayer:sum(packetBytes) 3124
scalar SingleCell.eNB.cellularNic.mac receivedPacketFromUpperLayer:count 1238
scalar SingleCell.eNB.cellularNic.mac receivedPacketFromUpperLayer:sum(packetBytes) 86660
scalar SingleCell.eNB.cellularNic.mac macBufferOverFlowD2D:mean -nan
scalar SingleCell.eNB.cellularNic.mac macBufferOverFlowUl:mean -nan
scalar SingleCell.eNB.cellularNic.mac macBufferOverFlowDl:mean -nan
scalar SingleCell.eNB.cellularNic.channelModel[0] measuredSinrUl:mean -nan
scalar SingleCell.eNB.cellularNic.channelModel[0] measuredSinrDl:mean -nan
scalar SingleCell.eNB.cellularNic.channelModel[0] rcvdSinrD2D:mean -nan
scalar SingleCell.eNB.cellularNic.channelModel[0] rcvdSinrUl:mean -nan
scalar SingleCell.eNB.cellularNic.channelModel[0] rcvdSinrDl:mean -nan
scalar SingleCell.eNB.cellularNic packetDropInterfaceDown:count 0
scalar SingleCell.eNB.cellularNic packetDropInterfaceDown:sum(packetBytes) 0
scalar SingleCell.eNB.cellularNic packetDropNoCarrier:count 0
scalar SingleCell.eNB.cellularNic packetDropNoCarrier:sum(packetBytes) 0
scalar SingleCell.eNB.pppIf.queue queueLength:last 0
scalar SingleCell.eNB.pppIf.queue queueLength:max 0
scalar SingleCell.eNB.pppIf.queue queueLength:timeavg 0
scalar SingleCell.eNB.pppIf.queue queueBitLength:last 0
scalar SingleCell.eNB.pppIf.queue queueBitLength:max 0
scalar SingleCell.eNB.pppIf.queue queueBitLength:timeavg 0
scalar SingleCell.eNB.pppIf.queue outgoingPackets:count 0
scalar SingleCell.eNB.pppIf.queue outgoingPacketLengths:sum 0
scalar SingleCell.eNB.pppIf.queue incomingPackets:count 0
scalar SingleCell.eNB.pppIf.queue incomingPacketLengths:sum 0
scalar SingleCell.eNB.pppIf.queue droppedPacketsQueueOverflow:count 0
scalar SingleCell.eNB.pppIf.queue droppedPacketLengthsQueueOverflow:sum 0
scalar SingleCell.eNB.pppIf.ppp transmissionState:timeavg -nan
scalar SingleCell.eNB.pppIf.ppp rxPkOk:count 619
scalar SingleCell.eNB.pppIf.ppp rxPkOk:sum(packetBytes) 68709
scalar SingleCell.eNB.pppIf.ppp txPk:count 0
scalar SingleCell.eNB.pppIf.ppp txPk:sum(packetBytes) 0
scalar SingleCell.eNB.pppIf.ppp rcvdPkFromHl:count 0
scalar SingleCell.eNB.pppIf.ppp rcvdPkFromHl:sum(packetBytes) 0
scalar SingleCell.eNB.pppIf.ppp passedUpPk:count 619
scalar SingleCell.eNB.pppIf.ppp passedUpPk:sum(packetBytes) 64376
scalar SingleCell.eNB.pppIf.ppp packetDropIncorrectlyReceived:count 0
scalar SingleCell.eNB.pppIf.ppp packetDropIncorrectlyReceived:sum(packetBytes) 0
scalar SingleCell.eNB.pppIf.ppp packetDropInterfaceDown:count 0
scalar SingleCell.eNB.pppIf.ppp packetDropInterfaceDown:sum(packetBytes) 0
scalar SingleCell.eNB.pppIf packetDropInterfaceDown:count 0
scalar SingleCell.eNB.pppIf packetDropInterfaceDown:sum(packetBytes) 0
scalar SingleCell.eNB.pppIf packetDropNoCarrier:count 0
scalar SingleCell.eNB.pppIf packetDropNoCarrier:sum(packetBytes) 0
scalar SingleCell.eNB.pppMEHostIf.queue queueLength:last 0
scalar SingleCell.eNB.pppMEHostIf.queue queueLength:max 0
scalar SingleCell.eNB.pppMEHostIf.queue queueLength:timeavg 0
scalar SingleCell.eNB.pppMEHostIf.queue queueBitLength:last 0
scalar SingleCell.eNB.pppMEHostIf.queue queueBitLength:max 0
scalar SingleCell.eNB.pppMEHostIf.queue queueBitLength:timeavg 0
scalar SingleCell.eNB.pppMEHostIf.queue outgoingPackets:count 0
scalar SingleCell.eNB.pppMEHostIf.queue outgoingPacketLengths:sum 0
scalar SingleCell.eNB.pppMEHostIf.queue incomingPackets:count 0
scalar SingleCell.eNB.pppMEHostIf.queue incomingPacketLengths:sum 0
scalar SingleCell.eNB.pppMEHostIf.queue droppedPacketsQueueOverflow:count 0
scalar SingleCell.eNB.pppMEHostIf.queue droppedPacketLengthsQueueOverflow:sum 0
scalar SingleCell.eNB.pppMEHostIf.ppp transmissionState:timeavg -nan
scalar SingleCell.eNB.pppMEHostIf.ppp rxPkOk:count 0
scalar SingleCell.eNB.pppMEHostIf.ppp rxPkOk:sum(packetBytes) 0
scalar SingleCell.eNB.pppMEHostIf.ppp txPk:count 0
scalar SingleCell.eNB.pppMEHostIf.ppp txPk:sum(packetBytes) 0
scalar SingleCell.eNB.pppMEHostIf.ppp rcvdPkFromHl:count 0
scalar SingleCell.eNB.pppMEHostIf.ppp rcvdPkFromHl:sum(packetBytes) 0
scalar SingleCell.eNB.pppMEHostIf.ppp passedUpPk:count 0
scalar SingleCell.eNB.pppMEHostIf.ppp passedUpPk:sum(packetBytes) 0
scalar SingleCell.eNB.pppMEHostIf.ppp packetDropIncorrectlyReceived:count 0
scalar SingleCell.eNB.pppMEHostIf.ppp packetDropIncorrectlyReceived:sum(packetBytes) 0
scalar SingleCell.eNB.pppMEHostIf.ppp packetDropInterfaceDown:count 0
scalar SingleCell.eNB.pppMEHostIf.ppp packetDropInterfaceDown:sum(packetBytes) 0
scalar SingleCell.eNB.pppMEHostIf packetDropInterfaceDown:count 0
scalar SingleCell.eNB.pppMEHostIf packetDropInterfaceDown:sum(packetBytes) 0
scalar SingleCell.eNB.pppMEHostIf packetDropNoCarrier:count 0
scalar SingleCell.eNB.pppMEHostIf packetDropNoCarrier:sum(packetBytes) 0
scalar SingleCell.eNB.ipv4.ip packetDropAddressResolutionFailed:count 0
scalar SingleCell.eNB.ipv4.ip packetDropAddressResolutionFailed:sum(packetBytes) 0
scalar SingleCell.eNB.ipv4.ip packetDropHopLimitReached:count 0
scalar SingleCell.eNB.ipv4.ip packetDropHopLimitReached:sum(packetBytes) 0
scalar SingleCell.eNB.ipv4.ip packetDropForwardingDisabled:count 0
scalar SingleCell.eNB.ipv4.ip packetDropForwardingDisabled:sum(packetBytes) 0
scalar SingleCell.eNB.ipv4.ip packetDropNoInterfaceFound:count 0
scalar SingleCell.eNB.ipv4.ip packetDropNoInterfaceFound:sum(packetBytes) 0
scalar SingleCell.eNB.ipv4.ip packetDropNoRouteFound:count 0
scalar SingleCell.eNB.ipv4.ip packetDropNoRouteFound:sum(packetBytes) 0
scalar SingleCell.eNB.ipv4.ip packetDropUndefined:count 0
scalar SingleCell.eNB.ipv4.ip packetDropUndefined:sum(packetBytes) 0
scalar SingleCell.eNB.ipv4.arp arpResolutionFailed:count 0
scalar SingleCell.eNB.ipv4.arp arpResolutionCompleted:count 0
scalar SingleCell.eNB.ipv4.arp arpResolutionInitiated:count 0
scalar SingleCell.eNB.ipv4.arp arpReplySent:count 0
scalar SingleCell.eNB.ipv4.arp arpReplySent:sum(packetBytes) 0
scalar SingleCell.eNB.ipv4.arp arpRequestSent:count 0
scalar SingleCell.eNB.ipv4.arp arpRequestSent:sum(packetBytes) 0
scalar SingleCell.eNB.udp packetReceived:count 619
scalar SingleCell.eNB.udp packetReceived:sum(packetBytes) 51996
scalar SingleCell.eNB.udp packetSent:count 0
scalar SingleCell.eNB.udp packetSent:sum(packetBytes) 0
scalar SingleCell.eNB.udp passedUpPk:count 619
scalar SingleCell.eNB.udp droppedPkWrongPort:count 0
scalar SingleCell.eNB.udp droppedPkBadChecksum:count 0
scalar SingleCell.ue[0].lo[0].lo rcvdPkFromHl:count 0
scalar SingleCell.ue[0].lo[0].lo rcvdPkFromHl:sum(packetBytes) 0
scalar SingleCell.ue[0].lo[0].lo passedUpPk:count 0
scalar SingleCell.ue[0].lo[0].lo passedUpPk:sum(packetBytes) 0
scalar SingleCell.ue[0].lo[0] packetDropInterfaceDown:count 0
scalar SingleCell.ue[0].lo[0] packetDropInterfaceDown:sum(packetBytes) 0
scalar SingleCell.ue[0].lo[0] packetDropNoCarrier:count 0
scalar SingleCell.ue[0].lo[0] packetDropNoCarrier:sum(packetBytes) 0
scalar SingleCell.ue[0].cellularNic.pdcp sentPacketToLowerLayer:count 0
scalar SingleCell.ue[0].cellularNic.pdcp sentPacketToLowerLayer:sum(packetBytes) 0
scalar SingleCell.ue[0].cellularNic.pdcp sentPacketToUpperLayer:count 150
scalar SingleCell.ue[0].cellularNic.pdcp sentPacketToUpperLayer:sum(packetBytes) 10200
scalar SingleCell.ue[0].cellularNic.pdcp receivedPacketFromLowerLayer:count 150
scalar SingleCell.ue[0].cellularNic.pdcp receivedPacketFromLowerLayer:sum(packetBytes) 10350
scalar SingleCell.ue[0].cellularNic.pdcp receivedPacketFromUpperLayer:count 0
scalar SingleCell.ue[0].cellularNic.pdcp receivedPacketFromUpperLayer:sum(packetBytes) 0
scalar SingleCell.ue[0].cellularNic.rlc.tm rlcPacketLossUl:mean -nan
scalar SingleCell.ue[0].cellularNic.rlc.tm rlcPacketLossUl:sum 0
scalar SingleCell.ue[0].cellularNic.rlc.tm rlcPacketLossDl:mean -nan
scalar SingleCell.ue[0].cellularNic.rlc.tm rlcPacketLossDl:sum 0
scalar SingleCell.ue[0].cellularNic.rlc.tm sentPacketToLowerLayer:count 0
scalar SingleCell.ue[0].cellularNic.rlc.tm sentPacketToLowerLayer:sum(packetBytes) 0
scalar SingleCell.ue[0].cellularNic.rlc.tm sentPacketToUpperLayer:count 0
scalar SingleCell.ue[0].cellularNic.rlc.tm sentPacketToUpperLayer:sum(packetBytes) 0
scalar SingleCell.ue[0].cellularNic.rlc.tm receivedPacketFromLowerLayer:count 0
scalar SingleCell.ue[0].cellularNic.rlc.tm receivedPacketFromLowerLayer:sum(packetBytes) 0
scalar SingleCell.ue[0].cellularNic.rlc.tm receivedPacketFromUpperLayer:count 0
scalar SingleCell.ue[0].cellularNic.rlc.tm receivedPacketFromUpperLayer:sum(packetBytes) 0
scalar SingleCell.ue[0].cellularNic.rlc.um rlcCellThroughputUl:simu5g_rateavg -nan
scalar SingleCell.ue[0].cellularNic.rlc.um rlcCellThroughputDl:simu5g_rateavg -nan
scalar SingleCell.ue[0].cellularNic.rlc.um rlcPduThroughputUl:simu5g_rateavg -nan
scalar SingleCell.ue[0].cellularNic.rlc.um rlcPduThroughputDl:simu5g_rateavg 0
scalar SingleCell.ue[0].cellularNic.rlc.um rlcPduDelayUl:mean -nan
scalar SingleCell.ue[0].cellularNic.rlc.um rlcPduDelayDl:mean 0.0040400000000000028
scalar SingleCell.ue[0].cellularNic.rlc.um rlcThroughputUl:simu5g_rateavg -nan
scalar SingleCell.ue[0].cellularNic.rlc.um rlcThroughputDl:simu5g_rateavg 2781599.98171101
scalar SingleCell.ue[0].cellularNic.rlc.um rlcDelayUl:mean -nan
scalar SingleCell.ue[0].cellularNic.rlc.um rlcDelayDl:mean 0.0048092717149999971
scalar SingleCell.ue[0].cellularNic.rlc.um sentPacketToLowerLayer:count 0
scalar SingleCell.ue[0].cellularNic.rlc.um sentPacketToLowerLayer:sum(packetBytes) 0
scalar SingleCell.ue[0].cellularNic.rlc.um sentPacketToUpperLayer:count 150
scalar SingleCell.ue[0].cellularNic.rlc.um sentPacketToUpperLayer:sum(packetBytes) 10350
scalar SingleCell.ue[0].cellularNic.rlc.um receivedPacketFromLowerLayer:count 150
scalar SingleCell.ue[0].cellularNic.rlc.um receivedPacketFromLowerLayer:sum(packetBytes) 10650
scalar SingleCell.ue[0].cellularNic.rlc.um receivedPacketFromUpperLayer:count 0
scalar SingleCell.ue[0].cellularNic.rlc.um receivedPacketFromUpperLayer:sum(packetBytes) 0
scalar SingleCell.ue[0].cellularNic.rlc.am rlcPacketLossTotal:mean -nan
scalar SingleCell.ue[0].cellularNic.rlc.am rlcCellThroughputUl:simu5g_rateavg -nan
scalar SingleCell.ue[0].cellularNic.rlc.am rlcCellThroughputDl:simu5g_rateavg -nan
scalar SingleCell.ue[0].cellularNic.rlc.am rlcPduThroughputUl:simu5g_rateavg -nan
scalar SingleCell.ue[0].cellularNic.rlc.am rlcPduThroughputDl:simu5g_rateavg -nan
scalar SingleCell.ue[0].cellularNic.rlc.am rlcPduDelayUl:mean -nan
scalar SingleCell.ue[0].cellularNic.rlc.am rlcPduDelayDl:mean -nan
scalar SingleCell.ue[0].cellularNic.rlc.am rlcThroughputUl:simu5g_rateavg -nan
scalar SingleCell.ue[0].cellularNic.rlc.am rlcThroughputDl:simu5g_rateavg -nan
scalar SingleCell.ue[0].cellularNic.rlc.am rlcDelayUl:mean -nan
scalar SingleCell.ue[0].cellularNic.rlc.am rlcDelayDl:mean -nan
scalar SingleCell.ue[0].cellularNic.rlc.am rlcPduPacketLossUl:mean -nan
scalar SingleCell.ue[0].cellularNic.rlc.am rlcPduPacketLossDl:mean -nan
scalar SingleCell.ue[0].cellularNic.rlc.am rlcPacketLossUl:mean -nan
scalar SingleCell.ue[0].cellularNic.rlc.am rlcPacketLossDl:mean -nan
scalar SingleCell.ue[0].cellularNic.rlc.am rlcCellPacketLossUl:mean -nan
scalar SingleCell.ue[0].cellularNic.rlc.am rlcCellPacketLossDl:mean -nan
scalar SingleCell.ue[0].cellularNic.mac harqTxAttemptsUl:mean -nan
scalar SingleCell.ue[0].cellularNic.mac harqTxAttemptsDl:mean 1.0066666666666666
scalar SingleCell.ue[0].cellularNic.mac harqErrorRate_4th_Ul:mean -nan
scalar SingleCell.ue[0].cellularNic.mac harqErrorRate_4th_Dl:mean -nan
scalar SingleCell.ue[0].cellularNic.mac harqErrorRate_3rd_Ul:mean -nan
scalar SingleCell.ue[0].cellularNic.mac harqErrorRate_3rd_Dl:mean -nan
scalar SingleCell.ue[0].cellularNic.mac harqErrorRate_2nd_Ul:mean -nan
scalar SingleCell.ue[0].cellularNic.mac harqErrorRate_2nd_Dl:mean 0
scalar SingleCell.ue[0].cellularNic.mac harqErrorRate_1st_Ul:mean -nan
scalar SingleCell.ue[0].cellularNic.mac harqErrorRate_1st_Dl:mean 0.0066666666666666671
scalar SingleCell.ue[0].cellularNic.mac harqErrorRateUl:mean -nan
scalar SingleCell.ue[0].cellularNic.mac harqErrorRateDl:mean 0.0066225165562913907
scalar SingleCell.ue[0].cellularNic.mac macCellPacketLossUl:mean -nan
scalar SingleCell.ue[0].cellularNic.mac macCellPacketLossDl:mean -nan
scalar SingleCell.ue[0].cellularNic.mac macPacketLossUl:mean -nan
scalar SingleCell.ue[0].cellularNic.mac macPacketLossDl:mean 0
scalar SingleCell.ue[0].cellularNic.mac macThroughputUl:simu5g_rateavg -nan
scalar SingleCell.ue[0].cellularNic.mac macThroughputDl:simu5g_rateavg 2942852.1545638237
scalar SingleCell.ue[0].cellularNic.mac macDelayUl:mean -nan
scalar SingleCell.ue[0].cellularNic.mac macDelayDl:mean 0.0040400000000000028
scalar SingleCell.ue[0].cellularNic.mac macCellThroughputUl:simu5g_rateavg -nan
scalar SingleCell.ue[0].cellularNic.mac macCellThroughputDl:simu5g_rateavg -nan
scalar SingleCell.ue[0].cellularNic.mac sentPacketToLowerLayer:count 151
scalar SingleCell.ue[0].cellularNic.mac sentPacketToLowerLayer:sum(packetBytes) 151
scalar SingleCell.ue[0].cellularNic.mac sentPacketToUpperLayer:count 150
scalar SingleCell.ue[0].cellularNic.mac sentPacketToUpperLayer:sum(packetBytes) 10650
scalar SingleCell.ue[0].cellularNic.mac receivedPacketFromLowerLayer:count 151
scalar SingleCell.ue[0].cellularNic.mac receivedPacketFromLowerLayer:sum(packetBytes) 11023
scalar SingleCell.ue[0].cellularNic.mac receivedPacketFromUpperLayer:count 0
scalar SingleCell.ue[0].cellularNic.mac receivedPacketFromUpperLayer:sum(packetBytes) 0
scalar SingleCell.ue[0].cellularNic.mac macBufferOverFlowD2D:mean -nan
scalar SingleCell.ue[0].cellularNic.mac macBufferOverFlowUl:mean -nan
scalar SingleCell.ue[0].cellularNic.mac macBufferOverFlowDl:mean -nan
scalar SingleCell.ue[0].cellularNic.phy distance:mean 295.73696556501721
scalar SingleCell.ue[0].cellularNic.phy averageCqiUl:mean -nan
scalar SingleCell.ue[0].cellularNic.phy averageCqiUl:count 0
scalar SingleCell.ue[0].cellularNic.phy averageCqiDl:mean 15
scalar SingleCell.ue[0].cellularNic.phy averageCqiDl:count 151
scalar SingleCell.ue[0].cellularNic.channelModel[0] measuredSinrUl:mean 25.485079485290367
scalar SingleCell.ue[0].cellularNic.channelModel[0] measuredSinrDl:mean 44.075442136911853
scalar SingleCell.ue[0].cellularNic.channelModel[0] rcvdSinrD2D:mean -nan
scalar SingleCell.ue[0].cellularNic.channelModel[0] rcvdSinrUl:mean -nan
scalar SingleCell.ue[0].cellularNic.channelModel[0] rcvdSinrDl:mean 43.175792504061477
scalar SingleCell.ue[0].cellularNic packetDropInterfaceDown:count 0
scalar SingleCell.ue[0].cellularNic packetDropInterfaceDown:sum(packetBytes) 0
scalar SingleCell.ue[0].cellularNic packetDropNoCarrier:count 0
scalar SingleCell.ue[0].cellularNic packetDropNoCarrier:sum(packetBytes) 0
scalar SingleCell.ue[0].encap pauseSent:count 0
scalar SingleCell.ue[0].encap pauseSent:sum 0
scalar SingleCell.ue[0].encap decapPk:count 0
scalar SingleCell.ue[0].encap decapPk:sum(packetBytes) 0
scalar SingleCell.ue[0].encap encapPk:count 0
scalar SingleCell.ue[0].encap encapPk:sum(packetBytes) 0
scalar SingleCell.ue[0].ipv4.ip packetDropAddressResolutionFailed:count 0
scalar SingleCell.ue[0].ipv4.ip packetDropAddressResolutionFailed:sum(packetBytes) 0
scalar SingleCell.ue[0].ipv4.ip packetDropHopLimitReached:count 0
scalar SingleCell.ue[0].ipv4.ip packetDropHopLimitReached:sum(packetBytes) 0
scalar SingleCell.ue[0].ipv4.ip packetDropForwardingDisabled:count 0
scalar SingleCell.ue[0].ipv4.ip packetDropForwardingDisabled:sum(packetBytes) 0
scalar SingleCell.ue[0].ipv4.ip packetDropNoInterfaceFound:count 0
scalar SingleCell.ue[0].ipv4.ip packetDropNoInterfaceFound:sum(packetBytes) 0
scalar SingleCell.ue[0].ipv4.ip packetDropNoRouteFound:count 0
scalar SingleCell.ue[0].ipv4.ip packetDropNoRouteFound:sum(packetBytes) 0
scalar SingleCell.ue[0].ipv4.ip packetDropUndefined:count 0
scalar SingleCell.ue[0].ipv4.ip packetDropUndefined:sum(packetBytes) 0
scalar SingleCell.ue[0].ipv4.arp arpResolutionFailed:count 0
scalar SingleCell.ue[0].ipv4.arp arpResolutionCompleted:count 0
scalar SingleCell.ue[0].ipv4.arp arpResolutionInitiated:count 0
scalar SingleCell.ue[0].ipv4.arp arpReplySent:count 0
scalar SingleCell.ue[0].ipv4.arp arpReplySent:sum(packetBytes) 0
scalar SingleCell.ue[0].ipv4.arp arpRequestSent:count 0
scalar SingleCell.ue[0].ipv4.arp arpRequestSent:sum(packetBytes) 0
scalar SingleCell.ue[0].udp packetReceived:count 150
scalar SingleCell.ue[0].udp packetReceived:sum(packetBytes) 7200
scalar SingleCell.ue[0].udp packetSent:count 0
scalar SingleCell.ue[0].udp packetSent:sum(packetBytes) 0
scalar SingleCell.ue[0].udp passedUpPk:count 150
scalar SingleCell.ue[0].udp droppedPkWrongPort:count 0
scalar SingleCell.ue[0].udp droppedPkBadChecksum:count 0
scalar SingleCell.ue[0].app[0] voipReceivedThroughput:simu5g_rateavg 1612521.7285281231
scalar SingleCell.ue[0].app[0] voipPlayoutLoss:mean 0.003787878787878788
scalar SingleCell.ue[0].app[0] voipJitter:mean 0.0060000000000000001
scalar SingleCell.ue[0].app[0] voipTaildropLoss:mean 0
scalar SingleCell.ue[0].app[0] voipMos:mean 4.3369200313577609
scalar SingleCell.ue[0].app[0] voipFrameDelay:mean 0.0048096305150000093
scalar SingleCell.ue[0].app[0] voipFrameLoss:mean 0
scalar SingleCell.ue[0].app[0] voipPlayoutDelay:mean 0
scalar SingleCell.ue[1].lo[0].lo rcvdPkFromHl:count 0
scalar SingleCell.ue[1].lo[0].lo rcvdPkFromHl:sum(packetBytes) 0
scalar SingleCell.ue[1].lo[0].lo passedUpPk:count 0
scalar SingleCell.ue[1].lo[0].lo passedUpPk:sum(packetBytes) 0
scalar SingleCell.ue[1].lo[0] packetDropInterfaceDown:count 0
scalar SingleCell.ue[1].lo[0] packetDropInterfaceDown:sum(packetBytes) 0
scalar SingleCell.ue[1].lo[0] packetDropNoCarrier:count 0
scalar SingleCell.ue[1].lo[0] packetDropNoCarrier:sum(packetBytes) 0
scalar SingleCell.ue[1].cellularNic.pdcp sentPacketToLowerLayer:count 0
scalar SingleCell.ue[1].cellularNic.pdcp sentPacketToLowerLayer:sum(packetBytes) 0
scalar SingleCell.ue[1].cellularNic.pdcp sentPacketToUpperLayer:count 52
scalar SingleCell.ue[1].cellularNic.pdcp sentPacketToUpperLayer:sum(packetBytes) 3536
scalar SingleCell.ue[1].cellularNic.pdcp receivedPacketFromLowerLayer:count 52
scalar SingleCell.ue[1].cellularNic.pdcp receivedPacketFromLowerLayer:sum(packetBytes) 3588
scalar SingleCell.ue[1].cellularNic.pdcp receivedPacketFromUpperLayer:count 0
scalar SingleCell.ue[1].cellularNic.pdcp receivedPacketFromUpperLayer:sum(packetBytes) 0
scalar SingleCell.ue[1].cellularNic.rlc.tm rlcPacketLossUl:mean -nan
scalar SingleCell.ue[1].cellularNic.rlc.tm rlcPacketLossUl:sum 0
scalar SingleCell.ue[1].cellularNic.rlc.tm rlcPacketLossDl:mean -nan
scalar SingleCell.ue[1].cellularNic.rlc.tm rlcPacketLossDl:sum 0
scalar SingleCell.ue[1].cellularNic.rlc.tm sentPacketToLowerLayer:count 0
scalar SingleCell.ue[1].cellularNic.rlc.tm sentPacketToLowerLayer:sum(packetBytes) 0
scalar SingleCell.ue[1].cellularNic.rlc.tm sentPacketToUpperLayer:count 0
scalar SingleCell.ue[1].cellularNic.rlc.tm sentPacketToUpperLayer:sum(packetBytes) 0
scalar SingleCell.ue[1].cellularNic.rlc.tm receivedPacketFromLowerLayer:count 0
scalar SingleCell.ue[1].cellularNic.rlc.tm receivedPacketFromLowerLayer:sum(packetBytes) 0
scalar SingleCell.ue[1].cellularNic.rlc.tm receivedPacketFromUpperLayer:count 0
scalar SingleCell.ue[1].cellularNic.rlc.tm receivedPacketFromUpperLayer:sum(packetBytes) 0
scalar SingleCell.ue[1].cellularNic.rlc.um rlcCellThroughputUl:simu5g_rateavg -nan
scalar SingleCell.ue[1].cellularNic.rlc.um rlcCellThroughputDl:simu5g_rateavg -nan
scalar SingleCell.ue[1].cellularNic.rlc.um rlcPduThroughputUl:simu5g_rateavg -nan
scalar SingleCell.ue[1].cellularNic.rlc.um rlcPduThroughputDl:simu5g_rateavg 0
scalar SingleCell.ue[1].cellularNic.rlc.um rlcPduDelayUl:mean -nan
scalar SingleCell.ue[1].cellularNic.rlc.um rlcPduDelayDl:mean 0.0040000000000000027
scalar SingleCell.ue[1].cellularNic.rlc.um rlcThroughputUl:simu5g_rateavg -nan
scalar SingleCell.ue[1].cellularNic.rlc.um rlcThroughputDl:simu5g_rateavg 164290.43676030319
scalar SingleCell.ue[1].cellularNic.rlc.um rlcDelayUl:mean -nan
scalar SingleCell.ue[1].cellularNic.rlc.um rlcDelayDl:mean 0.0042110904240000016
scalar SingleCell.ue[1].cellularNic.rlc.um sentPacketToLowerLayer:count 0
scalar SingleCell.ue[1].cellularNic.rlc.um sentPacketToLowerLayer:sum(packetBytes) 0
scalar SingleCell.ue[1].cellularNic.rlc.um sentPacketToUpperLayer:count 52
scalar SingleCell.ue[1].cellularNic.rlc.um sentPacketToUpperLayer:sum(packetBytes) 3588
scalar SingleCell.ue[1].cellularNic.rlc.um receivedPacketFromLowerLayer:count 52
scalar SingleCell.ue[1].cellularNic.rlc.um receivedPacketFromLowerLayer:sum(packetBytes) 3692
scalar SingleCell.ue[1].cellularNic.rlc.um receivedPacketFromUpperLayer:count 0
scalar SingleCell.ue[1].cellularNic.rlc.um receivedPacketFromUpperLayer:sum(packetBytes) 0
scalar SingleCell.ue[1].cellularNic.rlc.am rlcPacketLossTotal:mean -nan
scalar SingleCell.ue[1].cellularNic.rlc.am rlcCellThroughputUl:simu5g_rateavg -nan
scalar SingleCell.ue[1].cellularNic.rlc.am rlcCellThroughputDl:simu5g_rateavg -nan
scalar SingleCell.ue[1].cellularNic.rlc.am rlcPduThroughputUl:simu5g_rateavg -nan
scalar SingleCell.ue[1].cellularNic.rlc.am rlcPduThroughputDl:simu5g_rateavg -nan
scalar SingleCell.ue[1].cellularNic.rlc.am rlcPduDelayUl:mean -nan
scalar SingleCell.ue[1].cellularNic.rlc.am rlcPduDelayDl:mean -nan
scalar SingleCell.ue[1].cellularNic.rlc.am rlcThroughputUl:simu5g_rateavg -nan
scalar SingleCell.ue[1].cellularNic.rlc.am rlcThroughputDl:simu5g_rateavg -nan
scalar SingleCell.ue[1].cellularNic.rlc.am rlcDelayUl:mean -nan
scalar SingleCell.ue[1].cellularNic.rlc.am rlcDelayDl:mean -nan
scalar SingleCell.ue[1].cellularNic.rlc.am rlcPduPacketLossUl:mean -nan
scalar SingleCell.ue[1].cellularNic.rlc.am rlcPduPacketLossDl:mean -nan
scalar SingleCell.ue[1].cellularNic.rlc.am rlcPacketLossUl:mean -nan
scalar SingleCell.ue[1].cellularNic.rlc.am rlcPacketLossDl:mean -nan
scalar SingleCell.ue[1].cellularNic.rlc.am rlcCellPacketLossUl:mean -nan
scalar SingleCell.ue[1].cellularNic.rlc.am rlcCellPacketLossDl:mean -nan
scalar SingleCell.ue[1].cellularNic.mac harqTxAttemptsUl:mean -nan
scalar SingleCell.ue[1].cellularNic.mac harqTxAttemptsDl:mean 1
scalar SingleCell.ue[1].cellularNic.mac harqErrorRate_4th_Ul:mean -nan
scalar SingleCell.ue[1].cellularNic.mac harqErrorRate_4th_Dl:mean -nan
scalar SingleCell.ue[1].cellularNic.mac harqErrorRate_3rd_Ul:mean -nan
scalar SingleCell.ue[1].cellularNic.mac harqErrorRate_3rd_Dl:mean -nan
scalar SingleCell.ue[1].cellularNic.mac harqErrorRate_2nd_Ul:mean -nan
scalar SingleCell.ue[1].cellularNic.mac harqErrorRate_2nd_Dl:mean -nan
scalar SingleCell.ue[1].cellularNic.mac harqErrorRate_1st_Ul:mean -nan
scalar SingleCell.ue[1].cellularNic.mac harqErrorRate_1st_Dl:mean 0
scalar SingleCell.ue[1].cellularNic.mac harqErrorRateUl:mean -nan
scalar SingleCell.ue[1].cellularNic.mac harqErrorRateDl:mean 0
scalar SingleCell.ue[1].cellularNic.mac macCellPacketLossUl:mean -nan
scalar SingleCell.ue[1].cellularNic.mac macCellPacketLossDl:mean -nan
scalar SingleCell.ue[1].cellularNic.mac macPacketLossUl:mean -nan
scalar SingleCell.ue[1].cellularNic.mac macPacketLossDl:mean 0
scalar SingleCell.ue[1].cellularNic.mac macThroughputUl:simu5g_rateavg -nan
scalar SingleCell.ue[1].cellularNic.mac macThroughputDl:simu5g_rateavg 173814.5200507555
scalar SingleCell.ue[1].cellularNic.mac macDelayUl:mean -nan
scalar SingleCell.ue[1].cellularNic.mac macDelayDl:mean 0.0040000000000000027
scalar SingleCell.ue[1].cellularNic.mac macCellThroughputUl:simu5g_rateavg -nan
scalar SingleCell.ue[1].cellularNic.mac macCellThroughputDl:simu5g_rateavg -nan
scalar SingleCell.ue[1].cellularNic.mac sentPacketToLowerLayer:count 52
scalar SingleCell.ue[1].cellularNic.mac sentPacketToLowerLayer:sum(packetBytes) 52
scalar SingleCell.ue[1].cellularNic.mac sentPacketToUpperLayer:count 52
scalar SingleCell.ue[1].cellularNic.mac sentPacketToUpperLayer:sum(packetBytes) 3692
scalar SingleCell.ue[1].cellularNic.mac receivedPacketFromLowerLayer:count 52
scalar SingleCell.ue[1].cellularNic.mac receivedPacketFromLowerLayer:sum(packetBytes) 3796
scalar SingleCell.ue[1].cellularNic.mac receivedPacketFromUpperLayer:count 0
scalar SingleCell.ue[1].cellularNic.mac receivedPacketFromUpperLayer:sum(packetBytes) 0
scalar SingleCell.ue[1].cellularNic.mac macBufferOverFlowD2D:mean -nan
scalar SingleCell.ue[1].cellularNic.mac macBufferOverFlowUl:mean -nan
scalar SingleCell.ue[1].cellularNic.mac macBufferOverFlowDl:mean -nan
scalar SingleCell.ue[1].cellularNic.phy distance:mean 206.7871484495931
scalar SingleCell.ue[1].cellularNic.phy averageCqiUl:mean -nan
scalar SingleCell.ue[1].cellularNic.phy averageCqiUl:count 0
scalar SingleCell.ue[1].cellularNic.phy averageCqiDl:mean 14.096153846153847
scalar SingleCell.ue[1].cellularNic.phy averageCqiDl:count 52
scalar SingleCell.ue[1].cellularNic.channelModel[0] measuredSinrUl:mean 39.167620301449439
scalar SingleCell.ue[1].cellularNic.channelModel[0] measuredSinrDl:mean 45.069293651779894
scalar SingleCell.ue[1].cellularNic.channelModel[0] rcvdSinrD2D:mean -nan
scalar SingleCell.ue[1].cellularNic.channelModel[0] rcvdSinrUl:mean -nan
scalar SingleCell.ue[1].cellularNic.channelModel[0] rcvdSinrDl:mean 43.593558506578347
scalar SingleCell.ue[1].cellularNic packetDropInterfaceDown:count 0
scalar SingleCell.ue[1].cellularNic packetDropInterfaceDown:sum(packetBytes) 0
scalar SingleCell.ue[1].cellularNic packetDropNoCarrier:count 0
scalar SingleCell.ue[1].cellularNic packetDropNoCarrier:sum(packetBytes) 0
scalar SingleCell.ue[1].encap pauseSent:count 0
scalar SingleCell.ue[1].encap pauseSent:sum 0
scalar SingleCell.ue[1].encap decapPk:count 0
scalar SingleCell.ue[1].encap decapPk:sum(packetBytes) 0
scalar SingleCell.ue[1].encap encapPk:count 0
scalar SingleCell.ue[1].encap encapPk:sum(packetBytes) 0
scalar SingleCell.ue[1].ipv4.ip packetDropAddressResolutionFailed:count 0
scalar SingleCell.ue[1].ipv4.ip packetDropAddressResolutionFailed:sum(packetBytes) 0
scalar SingleCell.ue[1].ipv4.ip packetDropHopLimitReached:count 0
scalar SingleCell.ue[1].ipv4.ip packetDropHopLimitReached:sum(packetBytes) 0
scalar SingleCell.ue[1].ipv4.ip packetDropForwardingDisabled:count 0
scalar SingleCell.ue[1].ipv4.ip packetDropForwardingDisabled:sum(packetBytes) 0
scalar SingleCell.ue[1].ipv4.ip packetDropNoInterfaceFound:count 0
scalar SingleCell.ue[1].ipv4.ip packetDropNoInterfaceFound:sum(packetBytes) 0
scalar SingleCell.ue[1].ipv4.ip packetDropNoRouteFound:count 0
scalar SingleCell.ue[1].ipv4.ip packetDropNoRouteFound:sum(packetBytes) 0
scalar SingleCell.ue[1].ipv4.ip packetDropUndefined:count 0
scalar SingleCell.ue[1].ipv4.ip packetDropUndefined:sum(packetBytes) 0
scalar SingleCell.ue[1].ipv4.arp arpResolutionFailed:count 0
scalar SingleCell.ue[1].ipv4.arp arpResolutionCompleted:count 0
scalar SingleCell.ue[1].ipv4.arp arpResolutionInitiated:count 0
scalar SingleCell.ue[1].ipv4.arp arpReplySent:count 0
scalar SingleCell.ue[1].ipv4.arp arpReplySent:sum(packetBytes) 0
scalar SingleCell.ue[1].ipv4.arp arpRequestSent:count 0
scalar SingleCell.ue[1].ipv4.arp arpRequestSent:sum(packetBytes) 0
scalar SingleCell.ue[1].udp packetReceived:count 52
scalar SingleCell.ue[1].udp packetReceived:sum(packetBytes) 2496
scalar SingleCell.ue[1].udp packetSent:count 0
scalar SingleCell.ue[1].udp packetSent:sum(packetBytes) 0
scalar SingleCell.ue[1].udp passedUpPk:count 52
scalar SingleCell.ue[1].udp droppedPkWrongPort:count 0
scalar SingleCell.ue[1].udp droppedPkBadChecksum:count 0
scalar SingleCell.ue[1].app[0] voipReceivedThroughput:simu5g_rateavg 95240.832904523675
scalar SingleCell.ue[1].app[0] voipPlayoutLoss:mean 0
scalar SingleCell.ue[1].app[0] voipJitter:mean -nan
scalar SingleCell.ue[1].app[0] voipTaildropLoss:mean 0
scalar SingleCell.ue[1].app[0] voipMos:mean 4.4092858240000004
scalar SingleCell.ue[1].app[0] voipFrameDelay:mean 0.0042114492239999973
scalar SingleCell.ue[1].app[0] voipFrameLoss:mean 0
scalar SingleCell.ue[1].app[0] voipPlayoutDelay:mean 0
scalar SingleCell.ue[2].lo[0].lo rcvdPkFromHl:count 0
scalar SingleCell.ue[2].lo[0].lo rcvdPkFromHl:sum(packetBytes) 0
scalar SingleCell.ue[2].lo[0].lo passedUpPk:count 0
scalar SingleCell.ue[2].lo[0].lo passedUpPk:sum(packetBytes) 0
scalar SingleCell.ue[2].lo[0] packetDropInterfaceDown:count 0
scalar SingleCell.ue[2].lo[0] packetDropInterfaceDown:sum(packetBytes) 0
scalar SingleCell.ue[2].lo[0] packetDropNoCarrier:count 0
scalar SingleCell.ue[2].lo[0] packetDropNoCarrier:sum(packetBytes) 0
scalar SingleCell.ue[2].cellularNic.pdcp sentPacketToLowerLayer:count 0
scalar SingleCell.ue[2].cellularNic.pdcp sentPacketToLowerLayer:sum(packetBytes) 0
scalar SingleCell.ue[2].cellularNic.pdcp sentPacketToUpperLayer:count 150
scalar SingleCell.ue[2].cellularNic.pdcp sentPacketToUpperLayer:sum(packetBytes) 10200
scalar SingleCell.ue[2].cellularNic.pdcp receivedPacketFromLowerLayer:count 150
scalar SingleCell.ue[2].cellularNic.pdcp receivedPacketFromLowerLayer:sum(packetBytes) 10350
scalar SingleCell.ue[2].cellularNic.pdcp receivedPacketFromUpperLayer:count 0
scalar SingleCell.ue[2].cellularNic.pdcp receivedPacketFromUpperLayer:sum(packetBytes) 0
scalar SingleCell.ue[2].cellularNic.rlc.tm rlcPacketLossUl:mean -nan
scalar SingleCell.ue[2].cellularNic.rlc.tm rlcPacketLossUl:sum 0
scalar SingleCell.ue[2].cellularNic.rlc.tm rlcPacketLossDl:mean -nan
scalar SingleCell.ue[2].cellularNic.rlc.tm rlcPacketLossDl:sum 0
scalar SingleCell.ue[2].cellularNic.rlc.tm sentPacketToLowerLayer:count 0
scalar SingleCell.ue[2].cellularNic.rlc.tm sentPacketToLowerLayer:sum(packetBytes) 0
scalar SingleCell.ue[2].cellularNic.rlc.tm sentPacketToUpperLayer:count 0
scalar SingleCell.ue[2].cellularNic.rlc.tm sentPacketToUpperLayer:sum(packetBytes) 0
scalar SingleCell.ue[2].cellularNic.rlc.tm receivedPacketFromLowerLayer:count 0
scalar SingleCell.ue[2].cellularNic.rlc.tm receivedPacketFromLowerLayer:sum(packetBytes) 0
scalar SingleCell.ue[2].cellularNic.rlc.tm receivedPacketFromUpperLayer:count 0
scalar SingleCell.ue[2].cellularNic.rlc.tm receivedPacketFromUpperLayer:sum(packetBytes) 0
scalar SingleCell.ue[2].cellularNic.rlc.um rlcCellThroughputUl:simu5g_rateavg -nan
scalar SingleCell.ue[2].cellularNic.rlc.um rlcCellThroughputDl:simu5g_rateavg -nan
scalar SingleCell.ue[2].cellularNic.rlc.um rlcPduThroughputUl:simu5g_rateavg -nan
scalar SingleCell.ue[2].cellularNic.rlc.um rlcPduThroughputDl:simu5g_rateavg 0
scalar SingleCell.ue[2].cellularNic.rlc.um rlcPduDelayUl:mean -nan
scalar SingleCell.ue[2].cellularNic.rlc.um rlcPduDelayDl:mean 0.0040000000000000027
scalar SingleCell.ue[2].cellularNic.rlc.um rlcThroughputUl:simu5g_rateavg -nan
scalar SingleCell.ue[2].cellularNic.rlc.um rlcThroughputDl:simu5g_rateavg 133596.20040752648
scalar SingleCell.ue[2].cellularNic.rlc.um rlcDelayUl:mean -nan
scalar SingleCell.ue[2].cellularNic.rlc.um rlcDelayDl:mean 0.0044880359610000023
scalar SingleCell.ue[2].cellularNic.rlc.um sentPacketToLowerLayer:count 0
scalar SingleCell.ue[2].cellularNic.rlc.um sentPacketToLowerLayer:sum(packetBytes) 0
scalar SingleCell.ue[2].cellularNic.rlc.um sentPacketToUpperLayer:count 150
scalar SingleCell.ue[2].cellularNic.rlc.um sentPacketToUpperLayer:sum(packetBytes) 10350
scalar SingleCell.ue[2].cellularNic.rlc.um receivedPacketFromLowerLayer:count 150
scalar SingleCell.ue[2].cellularNic.rlc.um receivedPacketFromLowerLayer:sum(packetBytes) 10650
scalar SingleCell.ue[2].cellularNic.rlc.um receivedPacketFromUpperLayer:count 0
scalar SingleCell.ue[2].cellularNic.rlc.um receivedPacketFromUpperLayer:sum(packetBytes) 0
scalar SingleCell.ue[2].cellularNic.rlc.am rlcPacketLossTotal:mean -nan
scalar SingleCell.ue[2].cellularNic.rlc.am rlcCellThroughputUl:simu5g_rateavg -nan
scalar SingleCell.ue[2].cellularNic.rlc.am rlcCellThroughputDl:simu5g_rateavg -nan
scalar SingleCell.ue[2].cellularNic.rlc.am rlcPduThroughputUl:simu5g_rateavg -nan
scalar SingleCell.ue[2].cellularNic.rlc.am rlcPduThroughputDl:simu5g_rateavg -nan
scalar SingleCell.ue[2].cellularNic.rlc.am rlcPduDelayUl:mean -nan
scalar SingleCell.ue[2].cellularNic.rlc.am rlcPduDelayDl:mean -nan
scalar SingleCell.ue[2].cellularNic.rlc.am rlcThroughputUl:simu5g_rateavg -nan
scalar SingleCell.ue[2].cellularNic.rlc.am rlcThroughputDl:simu5g_rateavg -nan
scalar SingleCell.ue[2].cellularNic.rlc.am rlcDelayUl:mean -nan
scalar SingleCell.ue[2].cellularNic.rlc.am rlcDelayDl:mean -nan
scalar SingleCell.ue[2].cellularNic.rlc.am rlcPduPacketLossUl:mean -nan
scalar SingleCell.ue[2].cellularNic.rlc.am rlcPduPacketLossDl:mean -nan
scalar SingleCell.ue[2].cellularNic.rlc.am rlcPacketLossUl:mean -nan
scalar SingleCell.ue[2].cellularNic.rlc.am rlcPacketLossDl:mean -nan
scalar SingleCell.ue[2].cellularNic.rlc.am rlcCellPacketLossUl:mean -nan
scalar SingleCell.ue[2].cellularNic.rlc.am rlcCellPacketLossDl:mean -nan
scalar SingleCell.ue[2].cellularNic.mac harqTxAttemptsUl:mean -nan
scalar SingleCell.ue[2].cellularNic.mac harqTxAttemptsDl:mean 1
scalar SingleCell.ue[2].cellularNic.mac harqErrorRate_4th_Ul:mean -nan
scalar SingleCell.ue[2].cellularNic.mac harqErrorRate_4th_Dl:mean -nan
scalar SingleCell.ue[2].cellularNic.mac harqErrorRate_3rd_Ul:mean -nan
scalar SingleCell.ue[2].cellularNic.mac harqErrorRate_3rd_Dl:mean -nan
scalar SingleCell.ue[2].cellularNic.mac harqErrorRate_2nd_Ul:mean -nan
scalar SingleCell.ue[2].cellularNic.mac harqErrorRate_2nd_Dl:mean -nan
scalar SingleCell.ue[2].cellularNic.mac harqErrorRate_1st_Ul:mean -nan
scalar SingleCell.ue[2].cellularNic.mac harqErrorRate_1st_Dl:mean 0
scalar SingleCell.ue[2].cellularNic.mac harqErrorRateUl:mean -nan
scalar SingleCell.ue[2].cellularNic.mac harqErrorRateDl:mean 0
scalar SingleCell.ue[2].cellularNic.mac macCellPacketLossUl:mean -nan
scalar SingleCell.ue[2].cellularNic.mac macCellPacketLossDl:mean -nan
scalar SingleCell.ue[2].cellularNic.mac macPacketLossUl:mean -nan
scalar SingleCell.ue[2].cellularNic.mac macPacketLossDl:mean 0
scalar SingleCell.ue[2].cellularNic.mac macThroughputUl:simu5g_rateavg -nan
scalar SingleCell.ue[2].cellularNic.mac macThroughputDl:simu5g_rateavg 141340.90767752775
scalar SingleCell.ue[2].cellularNic.mac macDelayUl:mean -nan
scalar SingleCell.ue[2].cellularNic.mac macDelayDl:mean 0.0040000000000000027
scalar SingleCell.ue[2].cellularNic.mac macCellThroughputUl:simu5g_rateavg -nan
scalar SingleCell.ue[2].cellularNic.mac macCellThroughputDl:simu5g_rateavg -nan
scalar SingleCell.ue[2].cellularNic.mac sentPacketToLowerLayer:count 150
scalar SingleCell.ue[2].cellularNic.mac sentPacketToLowerLayer:sum(packetBytes) 150
scalar SingleCell.ue[2].cellularNic.mac sentPacketToUpperLayer:count 150
scalar SingleCell.ue[2].cellularNic.mac sentPacketToUpperLayer:sum(packetBytes) 10650
scalar SingleCell.ue[2].cellularNic.mac receivedPacketFromLowerLayer:count 150
scalar SingleCell.ue[2].cellularNic.mac receivedPacketFromLowerLayer:sum(packetBytes) 10950
scalar SingleCell.ue[2].cellularNic.mac receivedPacketFromUpperLayer:count 0
scalar SingleCell.ue[2].cellularNic.mac receivedPacketFromUpperLayer:sum(packetBytes) 0
scalar SingleCell.ue[2].cellularNic.mac macBufferOverFlowD2D:mean -nan
scalar SingleCell.ue[2].cellularNic.mac macBufferOverFlowUl:mean -nan
scalar SingleCell.ue[2].cellularNic.mac macBufferOverFlowDl:mean -nan
scalar SingleCell.ue[2].cellularNic.phy distance:mean 280.52552580511764
scalar SingleCell.ue[2].cellularNic.phy averageCqiUl:mean -nan
scalar SingleCell.ue[2].cellularNic.phy averageCqiUl:count 0
scalar SingleCell.ue[2].cellularNic.phy averageCqiDl:mean 15
scalar SingleCell.ue[2].cellularNic.phy averageCqiDl:count 150
scalar SingleCell.ue[2].cellularNic.channelModel[0] measuredSinrUl:mean 17.41690488589435
scalar SingleCell.ue[2].cellularNic.channelModel[0] measuredSinrDl:mean 45.840463341899671
scalar SingleCell.ue[2].cellularNic.channelModel[0] rcvdSinrD2D:mean -nan
scalar SingleCell.ue[2].cellularNic.channelModel[0] rcvdSinrUl:mean -nan
scalar SingleCell.ue[2].cellularNic.channelModel[0] rcvdSinrDl:mean 41.978562147145212
scalar SingleCell.ue[2].cellularNic packetDropInterfaceDown:count 0
scalar SingleCell.ue[2].cellularNic packetDropInterfaceDown:sum(packetBytes) 0
scalar SingleCell.ue[2].cellularNic packetDropNoCarrier:count 0
scalar SingleCell.ue[2].cellularNic packetDropNoCarrier:sum(packetBytes) 0
scalar SingleCell.ue[2].encap pauseSent:count 0
scalar SingleCell.ue[2].encap pauseSent:sum 0
scalar SingleCell.ue[2].encap decapPk:count 0
scalar SingleCell.ue[2].encap decapPk:sum(packetBytes) 0
scalar SingleCell.ue[2].encap encapPk:count 0
scalar SingleCell.ue[2].encap encapPk:sum(packetBytes) 0
scalar SingleCell.ue[2].ipv4.ip packetDropAddressResolutionFailed:count 0
scalar SingleCell.ue[2].ipv4.ip packetDropAddressResolutionFailed:sum(packetBytes) 0
scalar SingleCell.ue[2].ipv4.ip packetDropHopLimitReached:count 0
scalar SingleCell.ue[2].ipv4.ip packetDropHopLimitReached:sum(packetBytes) 0
scalar SingleCell.ue[2].ipv4.ip packetDropForwardingDisabled:count 0
scalar SingleCell.ue[2].ipv4.ip packetDropForwardingDisabled:sum(packetBytes) 0
scalar SingleCell.ue[2].ipv4.ip packetDropNoInterfaceFound:count 0
scalar SingleCell.ue[2].ipv4.ip packetDropNoInterfaceFound:sum(packetBytes) 0
scalar SingleCell.ue[2].ipv4.ip packetDropNoRouteFound:count 0
scalar SingleCell.ue[2].ipv4.ip packetDropNoRouteFound:sum(packetBytes) 0
scalar SingleCell.ue[2].ipv4.ip packetDropUndefined:count 0
scalar SingleCell.ue[2].ipv4.ip packetDropUndefined:sum(packetBytes) 0
scalar SingleCell.ue[2].ipv4.arp arpResolutionFailed:count 0
scalar SingleCell.ue[2].ipv4.arp arpResolutionCompleted:count 0
scalar SingleCell.ue[2].ipv4.arp arpResolutionInitiated:count 0
scalar SingleCell.ue[2].ipv4.arp arpReplySent:count 0
scalar SingleCell.ue[2].ipv4.arp arpReplySent:sum(packetBytes) 0
scalar SingleCell.ue[2].ipv4.arp arpRequestSent:count 0
scalar SingleCell.ue[2].ipv4.arp arpRequestSent:sum(packetBytes) 0
scalar SingleCell.ue[2].udp packetReceived:count 150
scalar SingleCell.ue[2].udp packetReceived:sum(packetBytes) 7200
scalar SingleCell.ue[2].udp packetSent:count 0
scalar SingleCell.ue[2].udp packetSent:sum(packetBytes) 0
scalar SingleCell.ue[2].udp passedUpPk:count 150
scalar SingleCell.ue[2].udp droppedPkWrongPort:count 0
scalar SingleCell.ue[2].udp droppedPkBadChecksum:count 0
scalar SingleCell.ue[2].app[0] voipReceivedThroughput:simu5g_rateavg 77447.072700015196
scalar SingleCell.ue[2].app[0] voipPlayoutLoss:mean 0.018518518518518517
scalar SingleCell.ue[2].app[0] voipJitter:mean 0.0060000000000000001
scalar SingleCell.ue[2].app[0] voipTaildropLoss:mean 0
scalar SingleCell.ue[2].app[0] voipMos:mean 3.9751588918530754
scalar SingleCell.ue[2].app[0] voipFrameDelay:mean 0.0044883947610000084
scalar SingleCell.ue[2].app[0] voipFrameLoss:mean 0
scalar SingleCell.ue[2].app[0] voipPlayoutDelay:mean 0.0030000000000000001
scalar SingleCell.ue[3].lo[0].lo rcvdPkFromHl:count 0
scalar SingleCell.ue[3].lo[0].lo rcvdPkFromHl:sum(packetBytes) 0
scalar SingleCell.ue[3].lo[0].lo passedUpPk:count 0
scalar SingleCell.ue[3].lo[0].lo passedUpPk:sum(packetBytes) 0
scalar SingleCell.ue[3].lo[0] packetDropInterfaceDown:count 0
scalar SingleCell.ue[3].lo[0] packetDropInterfaceDown:sum(packetBytes) 0
scalar SingleCell.ue[3].lo[0] packetDropNoCarrier:count 0
scalar SingleCell.ue[3].lo[0] packetDropNoCarrier:sum(packetBytes) 0
scalar SingleCell.ue[3].cellularNic.pdcp sentPacketToLowerLayer:count 0
scalar SingleCell.ue[3].cellularNic.pdcp sentPacketToLowerLayer:sum(packetBytes) 0
scalar SingleCell.ue[3].cellularNic.pdcp sentPacketToUpperLayer:count 117
scalar SingleCell.ue[3].cellularNic.pdcp sentPacketToUpperLayer:sum(packetBytes) 7956
scalar SingleCell.ue[3].cellularNic.pdcp receivedPacketFromLowerLayer:count 117
scalar SingleCell.ue[3].cellularNic.pdcp receivedPacketFromLowerLayer:sum(packetBytes) 8073
scalar SingleCell.ue[3].cellularNic.pdcp receivedPacketFromUpperLayer:count 0
scalar SingleCell.ue[3].cellularNic.pdcp receivedPacketFromUpperLayer:sum(packetBytes) 0
scalar SingleCell.ue[3].cellularNic.rlc.tm rlcPacketLossUl:mean -nan
scalar SingleCell.ue[3].cellularNic.rlc.tm rlcPacketLossUl:sum 0
scalar SingleCell.ue[3].cellularNic.rlc.tm rlcPacketLossDl:mean -nan
scalar SingleCell.ue[3].cellularNic.rlc.tm rlcPacketLossDl:sum 0
scalar SingleCell.ue[3].cellularNic.rlc.tm sentPacketToLowerLayer:count 0
scalar SingleCell.ue[3].cellularNic.rlc.tm sentPacketToLowerLayer:sum(packetBytes) 0
scalar SingleCell.ue[3].cellularNic.rlc.tm sentPacketToUpperLayer:count 0
scalar SingleCell.ue[3].cellularNic.rlc.tm sentPacketToUpperLayer:sum(packetBytes) 0
scalar SingleCell.ue[3].cellularNic.rlc.tm receivedPacketFromLowerLayer:count 0
scalar SingleCell.ue[3].cellularNic.rlc.tm receivedPacketFromLowerLayer:sum(packetBytes) 0
scalar SingleCell.ue[3].cellularNic.rlc.tm receivedPacketFromUpperLayer:count 0
scalar SingleCell.ue[3].cellularNic.rlc.tm receivedPacketFromUpperLayer:sum(packetBytes) 0
scalar SingleCell.ue[3].cellularNic.rlc.um rlcCellThroughputUl:simu5g_rateavg -nan
scalar SingleCell.ue[3].cellularNic.rlc.um rlcCellThroughputDl:simu5g_rateavg -nan
scalar SingleCell.ue[3].cellularNic.rlc.um rlcPduThroughputUl:simu5g_rateavg -nan
scalar SingleCell.ue[3].cellularNic.rlc.um rlcPduThroughputDl:simu5g_rateavg 0
scalar SingleCell.ue[3].cellularNic.rlc.um rlcPduDelayUl:mean -nan
scalar SingleCell.ue[3].cellularNic.rlc.um rlcPduDelayDl:mean 0.0040000000000000027
scalar SingleCell.ue[3].cellularNic.rlc.um rlcThroughputUl:simu5g_rateavg -nan
scalar SingleCell.ue[3].cellularNic.rlc.um rlcThroughputDl:simu5g_rateavg 5465.721827134721
scalar SingleCell.ue[3].cellularNic.rlc.um rlcDelayUl:mean -nan
scalar SingleCell.ue[3].cellularNic.rlc.um rlcDelayDl:mean 0.0046157660998034297
scalar SingleCell.ue[3].cellularNic.rlc.um sentPacketToLowerLayer:count 0
scalar SingleCell.ue[3].cellularNic.rlc.um sentPacketToLowerLayer:sum(packetBytes) 0
scalar SingleCell.ue[3].cellularNic.rlc.um sentPacketToUpperLayer:count 117
scalar SingleCell.ue[3].cellularNic.rlc.um sentPacketToUpperLayer:sum(packetBytes) 8073
scalar SingleCell.ue[3].cellularNic.rlc.um receivedPacketFromLowerLayer:count 117
scalar SingleCell.ue[3].cellularNic.rlc.um receivedPacketFromLowerLayer:sum(packetBytes) 8307
scalar SingleCell.ue[3].cellularNic.rlc.um receivedPacketFromUpperLayer:count 0
scalar SingleCell.ue[3].cellularNic.rlc.um receivedPacketFromUpperLayer:sum(packetBytes) 0
scalar SingleCell.ue[3].cellularNic.rlc.am rlcPacketLossTotal:mean -nan
scalar SingleCell.ue[3].cellularNic.rlc.am rlcCellThroughputUl:simu5g_rateavg -nan
scalar SingleCell.ue[3].cellularNic.rlc.am rlcCellThroughputDl:simu5g_rateavg -nan
scalar SingleCell.ue[3].cellularNic.rlc.am rlcPduThroughputUl:simu5g_rateavg -nan
scalar SingleCell.ue[3].cellularNic.rlc.am rlcPduThroughputDl:simu5g_rateavg -nan
scalar SingleCell.ue[3].cellularNic.rlc.am rlcPduDelayUl:mean -nan
scalar SingleCell.ue[3].cellularNic.rlc.am rlcPduDelayDl:mean -nan
scalar SingleCell.ue[3].cellularNic.rlc.am rlcThroughputUl:simu5g_rateavg -nan
scalar SingleCell.ue[3].cellularNic.rlc.am rlcThroughputDl:simu5g_rateavg -nan
scalar SingleCell.ue[3].cellularNic.rlc.am rlcDelayUl:mean -nan
scalar SingleCell.ue[3].cellularNic.rlc.am rlcDelayDl:mean -nan
scalar SingleCell.ue[3].cellularNic.rlc.am rlcPduPacketLossUl:mean -nan
scalar SingleCell.ue[3].cellularNic.rlc.am rlcPduPacketLossDl:mean -nan
scalar SingleCell.ue[3].cellularNic.rlc.am rlcPacketLossUl:mean -nan
scalar SingleCell.ue[3].cellularNic.rlc.am rlcPacketLossDl:mean -nan
scalar SingleCell.ue[3].cellularNic.rlc.am rlcCellPacketLossUl:mean -nan
scalar SingleCell.ue[3].cellularNic.rlc.am rlcCellPacketLossDl:mean -nan
scalar SingleCell.ue[3].cellularNic.mac harqTxAttemptsUl:mean -nan
scalar SingleCell.ue[3].cellularNic.mac harqTxAttemptsDl:mean 1
scalar SingleCell.ue[3].cellularNic.mac harqErrorRate_4th_Ul:mean -nan
scalar SingleCell.ue[3].cellularNic.mac harqErrorRate_4th_Dl:mean -nan
scalar SingleCell.ue[3].cellularNic.mac harqErrorRate_3rd_Ul:mean -nan
scalar SingleCell.ue[3].cellularNic.mac harqErrorRate_3rd_Dl:mean -nan
scalar SingleCell.ue[3].cellularNic.mac harqErrorRate_2nd_Ul:mean -nan
scalar SingleCell.ue[3].cellularNic.mac harqErrorRate_2nd_Dl:mean -nan
scalar SingleCell.ue[3].cellularNic.mac harqErrorRate_1st_Ul:mean -nan
scalar SingleCell.ue[3].cellularNic.mac harqErrorRate_1st_Dl:mean 0
scalar SingleCell.ue[3].cellularNic.mac harqErrorRateUl:mean -nan
scalar SingleCell.ue[3].cellularNic.mac harqErrorRateDl:mean 0
scalar SingleCell.ue[3].cellularNic.mac macCellPacketLossUl:mean -nan
scalar SingleCell.ue[3].cellularNic.mac macCellPacketLossDl:mean -nan
scalar SingleCell.ue[3].cellularNic.mac macPacketLossUl:mean -nan
scalar SingleCell.ue[3].cellularNic.mac macPacketLossDl:mean 0
scalar SingleCell.ue[3].cellularNic.mac macThroughputUl:simu5g_rateavg -nan
scalar SingleCell.ue[3].cellularNic.mac macThroughputDl:simu5g_rateavg 5782.5752663889089
scalar SingleCell.ue[3].cellularNic.mac macDelayUl:mean -nan
scalar SingleCell.ue[3].cellularNic.mac macDelayDl:mean 0.0040000000000000027
scalar SingleCell.ue[3].cellularNic.mac macCellThroughputUl:simu5g_rateavg -nan
scalar SingleCell.ue[3].cellularNic.mac macCellThroughputDl:simu5g_rateavg -nan
scalar SingleCell.ue[3].cellularNic.mac sentPacketToLowerLayer:count 117
scalar SingleCell.ue[3].cellularNic.mac sentPacketToLowerLayer:sum(packetBytes) 117
scalar SingleCell.ue[3].cellularNic.mac sentPacketToUpperLayer:count 117
scalar SingleCell.ue[3].cellularNic.mac sentPacketToUpperLayer:sum(packetBytes) 8307
scalar SingleCell.ue[3].cellularNic.mac receivedPacketFromLowerLayer:count 117
scalar SingleCell.ue[3].cellularNic.mac receivedPacketFromLowerLayer:sum(packetBytes) 8541
scalar SingleCell.ue[3].cellularNic.mac receivedPacketFromUpperLayer:count 0
scalar SingleCell.ue[3].cellularNic.mac receivedPacketFromUpperLayer:sum(packetBytes) 0
scalar SingleCell.ue[3].cellularNic.mac macBufferOverFlowD2D:mean -nan
scalar SingleCell.ue[3].cellularNic.mac macBufferOverFlowUl:mean -nan
scalar SingleCell.ue[3].cellularNic.mac macBufferOverFlowDl:mean -nan
scalar SingleCell.ue[3].cellularNic.phy distance:mean 95.05300771413107
scalar SingleCell.ue[3].cellularNic.phy averageCqiUl:mean -nan
scalar SingleCell.ue[3].cellularNic.phy averageCqiUl:count 0
scalar SingleCell.ue[3].cellularNic.phy averageCqiDl:mean 15
scalar SingleCell.ue[3].cellularNic.phy averageCqiDl:count 117
scalar SingleCell.ue[3].cellularNic.channelModel[0] measuredSinrUl:mean 40.262269317960552
scalar SingleCell.ue[3].cellularNic.channelModel[0] measuredSinrDl:mean 56.751742850419681
scalar SingleCell.ue[3].cellularNic.channelModel[0] rcvdSinrD2D:mean -nan
scalar SingleCell.ue[3].cellularNic.channelModel[0] rcvdSinrUl:mean -nan
scalar SingleCell.ue[3].cellularNic.channelModel[0] rcvdSinrDl:mean 55.015365528308088
scalar SingleCell.ue[3].cellularNic packetDropInterfaceDown:count 0
scalar SingleCell.ue[3].cellularNic packetDropInterfaceDown:sum(packetBytes) 0
scalar SingleCell.ue[3].cellularNic packetDropNoCarrier:count 0
scalar SingleCell.ue[3].cellularNic packetDropNoCarrier:sum(packetBytes) 0
scalar SingleCell.ue[3].encap pauseSent:count 0
scalar SingleCell.ue[3].encap pauseSent:sum 0
scalar SingleCell.ue[3].encap decapPk:count 0
scalar SingleCell.ue[3].encap decapPk:sum(packetBytes) 0
scalar SingleCell.ue[3].encap encapPk:count 0
scalar SingleCell.ue[3].encap encapPk:sum(packetBytes) 0
scalar SingleCell.ue[3].ipv4.ip packetDropAddressResolutionFailed:count 0
scalar SingleCell.ue[3].ipv4.ip packetDropAddressResolutionFailed:sum(packetBytes) 0
scalar SingleCell.ue[3].ipv4.ip packetDropHopLimitReached:count 0
scalar SingleCell.ue[3].ipv4.ip packetDropHopLimitReached:sum(packetBytes) 0
scalar SingleCell.ue[3].ipv4.ip packetDropForwardingDisabled:count 0
scalar SingleCell.ue[3].ipv4.ip packetDropForwardingDisabled:sum(packetBytes) 0
scalar SingleCell.ue[3].ipv4.ip packetDropNoInterfaceFound:count 0
scalar SingleCell.ue[3].ipv4.ip packetDropNoInterfaceFound:sum(packetBytes) 0
scalar SingleCell.ue[3].ipv4.ip packetDropNoRouteFound:count 0
scalar SingleCell.ue[3].ipv4.ip packetDropNoRouteFound:sum(packetBytes) 0
scalar SingleCell.ue[3].ipv4.ip packetDropUndefined:count 0
scalar SingleCell.ue[3].ipv4.ip packetDropUndefined:sum(packetBytes) 0
scalar SingleCell.ue[3].ipv4.arp arpResolutionFailed:count 0
scalar SingleCell.ue[3].ipv4.arp arpResolutionCompleted:count 0
scalar SingleCell.ue[3].ipv4.arp arpResolutionInitiated:count 0
scalar SingleCell.ue[3].ipv4.arp arpReplySent:count 0
scalar SingleCell.ue[3].ipv4.arp arpReplySent:sum(packetBytes) 0
scalar SingleCell.ue[3].ipv4.arp arpRequestSent:count 0
scalar SingleCell.ue[3].ipv4.arp arpRequestSent:sum(packetBytes) 0
scalar SingleCell.ue[3].udp packetReceived:count 117
scalar SingleCell.ue[3].udp packetReceived:sum(packetBytes) 5616
scalar SingleCell.ue[3].udp packetSent:count 0
scalar SingleCell.ue[3].udp packetSent:sum(packetBytes) 0
scalar SingleCell.ue[3].udp passedUpPk:count 117
scalar SingleCell.ue[3].udp droppedPkWrongPort:count 0
scalar SingleCell.ue[3].udp droppedPkBadChecksum:count 0
scalar SingleCell.ue[3].app[0] voipReceivedThroughput:simu5g_rateavg 3168.5343925418683
scalar SingleCell.ue[3].app[0] voipPlayoutLoss:mean 0
scalar SingleCell.ue[3].app[0] voipJitter:mean -nan
scalar SingleCell.ue[3].app[0] voipTaildropLoss:mean 0
scalar SingleCell.ue[3].app[0] voipMos:mean 4.4092858240000004
scalar SingleCell.ue[3].app[0] voipFrameDelay:mean 0.0046161248998034237
scalar SingleCell.ue[3].app[0] voipFrameLoss:mean 0
scalar SingleCell.ue[3].app[0] voipPlayoutDelay:mean 0
scalar SingleCell.ue[4].lo[0].lo rcvdPkFromHl:count 0
scalar SingleCell.ue[4].lo[0].lo rcvdPkFromHl:sum(packetBytes) 0
scalar SingleCell.ue[4].lo[0].lo passedUpPk:count 0
scalar SingleCell.ue[4].lo[0].lo passedUpPk:sum(packetBytes) 0
scalar SingleCell.ue[4].lo[0] packetDropInterfaceDown:count 0
scalar SingleCell.ue[4].lo[0] packetDropInterfaceDown:sum(packetBytes) 0
scalar SingleCell.ue[4].lo[0] packetDropNoCarrier:count 0
scalar SingleCell.ue[4].lo[0] packetDropNoCarrier:sum(packetBytes) 0
scalar SingleCell.ue[4].cellularNic.pdcp sentPacketToLowerLayer:count 0
scalar SingleCell.ue[4].cellularNic.pdcp sentPacketToLowerLayer:sum(packetBytes) 0
scalar SingleCell.ue[4].cellularNic.pdcp sentPacketToUpperLayer:count 150
scalar SingleCell.ue[4].cellularNic.pdcp sentPacketToUpperLayer:sum(packetBytes) 10200
scalar SingleCell.ue[4].cellularNic.pdcp receivedPacketFromLowerLayer:count 150
scalar SingleCell.ue[4].cellularNic.pdcp receivedPacketFromLowerLayer:sum(packetBytes) 10350
scalar SingleCell.ue[4].cellularNic.pdcp receivedPacketFromUpperLayer:count 0
scalar SingleCell.ue[4].cellularNic.pdcp receivedPacketFromUpperLayer:sum(packetBytes) 0
scalar SingleCell.ue[4].cellularNic.rlc.tm rlcPacketLossUl:mean -nan
scalar SingleCell.ue[4].cellularNic.rlc.tm rlcPacketLossUl:sum 0
scalar SingleCell.ue[4].cellularNic.rlc.tm rlcPacketLossDl:mean -nan
scalar SingleCell.ue[4].cellularNic.rlc.tm rlcPacketLossDl:sum 0
scalar SingleCell.ue[4].cellularNic.rlc.tm sentPacketToLowerLayer:count 0
scalar SingleCell.ue[4].cellularNic.rlc.tm sentPacketToLowerLayer:sum(packetBytes) 0
scalar SingleCell.ue[4].cellularNic.rlc.tm sentPacketToUpperLayer:count 0
scalar SingleCell.ue[4].cellularNic.rlc.tm sentPacketToUpperLayer:sum(packetBytes) 0
scalar SingleCell.ue[4].cellularNic.rlc.tm receivedPacketFromLowerLayer:count 0
scalar SingleCell.ue[4].cellularNic.rlc.tm receivedPacketFromLowerLayer:sum(packetBytes) 0
scalar SingleCell.ue[4].cellularNic.rlc.tm receivedPacketFromUpperLayer:count 0
scalar SingleCell.ue[4].cellularNic.rlc.tm receivedPacketFromUpperLayer:sum(packetBytes) 0
scalar SingleCell.ue[4].cellularNic.rlc.um rlcCellThroughputUl:simu5g_rateavg -nan
scalar SingleCell.ue[4].cellularNic.rlc.um rlcCellThroughputDl:simu5g_rateavg -nan
scalar SingleCell.ue[4].cellularNic.rlc.um rlcPduThroughputUl:simu5g_rateavg -nan
scalar SingleCell.ue[4].cellularNic.rlc.um rlcPduThroughputDl:simu5g_rateavg 0
scalar SingleCell.ue[4].cellularNic.rlc.um rlcPduDelayUl:mean -nan
scalar SingleCell.ue[4].cellularNic.rlc.um rlcPduDelayDl:mean 0.0040000000000000027
scalar SingleCell.ue[4].cellularNic.rlc.um rlcThroughputUl:simu5g_rateavg -nan
scalar SingleCell.ue[4].cellularNic.rlc.um rlcThroughputDl:simu5g_rateavg 182554.19848918208
scalar SingleCell.ue[4].cellularNic.rlc.um rlcDelayUl:mean -nan
scalar SingleCell.ue[4].cellularNic.rlc.um rlcDelayDl:mean 0.0045576019499999924
scalar SingleCell.ue[4].cellularNic.rlc.um sentPacketToLowerLayer:count 0
scalar SingleCell.ue[4].cellularNic.rlc.um sentPacketToLowerLayer:sum(packetBytes) 0
scalar SingleCell.ue[4].cellularNic.rlc.um sentPacketToUpperLayer:count 150
scalar SingleCell.ue[4].cellularNic.rlc.um sentPacketToUpperLayer:sum(packetBytes) 10350
scalar SingleCell.ue[4].cellularNic.rlc.um receivedPacketFromLowerLayer:count 150
scalar SingleCell.ue[4].cellularNic.rlc.um receivedPacketFromLowerLayer:sum(packetBytes) 10650
scalar SingleCell.ue[4].cellularNic.rlc.um receivedPacketFromUpperLayer:count 0
scalar SingleCell.ue[4].cellularNic.rlc.um receivedPacketFromUpperLayer:sum(packetBytes) 0
scalar SingleCell.ue[4].cellularNic.rlc.am rlcPacketLossTotal:mean -nan
scalar SingleCell.ue[4].cellularNic.rlc.am rlcCellThroughputUl:simu5g_rateavg -nan
scalar SingleCell.ue[4].cellularNic.rlc.am rlcCellThroughputDl:simu5g_rateavg -nan
scalar SingleCell.ue[4].cellularNic.rlc.am rlcPduThroughputUl:simu5g_rateavg -nan
scalar SingleCell.ue[4].cellularNic.rlc.am rlcPduThroughputDl:simu5g_rateavg -nan
scalar SingleCell.ue[4].cellularNic.rlc.am rlcPduDelayUl:mean -nan
scalar SingleCell.ue[4].cellularNic.rlc.am rlcPduDelayDl:mean -nan
scalar SingleCell.ue[4].cellularNic.rlc.am rlcThroughputUl:simu5g_rateavg -nan
scalar SingleCell.ue[4].cellularNic.rlc.am rlcThroughputDl:simu5g_rateavg -nan
scalar SingleCell.ue[4].cellularNic.rlc.am rlcDelayUl:mean -nan
scalar SingleCell.ue[4].cellularNic.rlc.am rlcDelayDl:mean -nan
scalar SingleCell.ue[4].cellularNic.rlc.am rlcPduPacketLossUl:mean -nan
scalar SingleCell.ue[4].cellularNic.rlc.am rlcPduPacketLossDl:mean -nan
scalar SingleCell.ue[4].cellularNic.rlc.am rlcPacketLossUl:mean -nan
scalar SingleCell.ue[4].cellularNic.rlc.am rlcPacketLossDl:mean -nan
scalar SingleCell.ue[4].cellularNic.rlc.am rlcCellPacketLossUl:mean -nan
scalar SingleCell.ue[4].cellularNic.rlc.am rlcCellPacketLossDl:mean -nan
scalar SingleCell.ue[4].cellularNic.mac harqTxAttemptsUl:mean -nan
scalar SingleCell.ue[4].cellularNic.mac harqTxAttemptsDl:mean 1
scalar SingleCell.ue[4].cellularNic.mac harqErrorRate_4th_Ul:mean -nan
scalar SingleCell.ue[4].cellularNic.mac harqErrorRate_4th_Dl:mean -nan
scalar SingleCell.ue[4].cellularNic.mac harqErrorRate_3rd_Ul:mean -nan
scalar SingleCell.ue[4].cellularNic.mac harqErrorRate_3rd_Dl:mean -nan
scalar SingleCell.ue[4].cellularNic.mac harqErrorRate_2nd_Ul:mean -nan
scalar SingleCell.ue[4].cellularNic.mac harqErrorRate_2nd_Dl:mean -nan
scalar SingleCell.ue[4].cellularNic.mac harqErrorRate_1st_Ul:mean -nan
scalar SingleCell.ue[4].cellularNic.mac harqErrorRate_1st_Dl:mean 0
scalar SingleCell.ue[4].cellularNic.mac harqErrorRateUl:mean -nan
scalar SingleCell.ue[4].cellularNic.mac harqErrorRateDl:mean 0
scalar SingleCell.ue[4].cellularNic.mac macCellPacketLossUl:mean -nan
scalar SingleCell.ue[4].cellularNic.mac macCellPacketLossDl:mean -nan
scalar SingleCell.ue[4].cellularNic.mac macPacketLossUl:mean -nan
scalar SingleCell.ue[4].cellularNic.mac macPacketLossDl:mean 0
scalar SingleCell.ue[4].cellularNic.mac macThroughputUl:simu5g_rateavg -nan
scalar SingleCell.ue[4].cellularNic.mac macThroughputDl:simu5g_rateavg 193137.05057551121
scalar SingleCell.ue[4].cellularNic.mac macDelayUl:mean -nan
[...]
scalar SingleCell.ue[4].cellularNic.phy distance:vector:sum 0
scalar SingleCell.ue[4].cellularNic.phy distance:vector:sumweights 0
scalar SingleCell.ue[4].cellularNic.phy distance:vector:mean -nan
scalar SingleCell.ue[4].cellularNic.phy distance:vector:stddev nan
scalar SingleCell.ue[4].cellularNic.phy distance:vector:min inf
scalar SingleCell.ue[4].cellularNic.phy distance:vector:max -inf
scalar SingleCell.ue[4].cellularNic.phy distance:vector:starttime nan
scalar SingleCell.ue[4].cellularNic.phy distance:vector:endtime nan
scalar SingleCell.ue[4].cellularNic.phy servingCell:vector:count 0
scalar SingleCell.ue[4].cellularNic.phy servingCell:vector:sum 0
scalar SingleCell.ue[4].cellularNic.phy servingCell:vector:sumweights 0
scalar SingleCell.ue[4].cellularNic.phy servingCell:vector:mean -nan
scalar SingleCell.ue[4].cellularNic.phy servingCell:vector:stddev nan
scalar SingleCell.ue[4].cellularNic.phy servingCell:vector:min inf
scalar SingleCell.ue[4].cellularNic.phy servingCell:vector:max -inf
scalar SingleCell.ue[4].cellularNic.phy servingCell:vector:starttime nan
scalar SingleCell.ue[4].cellularNic.phy servingCell:vector:endtime nan
scalar SingleCell.ue[4].cellularNic.phy averageCqiDl:vector:count 0
scalar SingleCell.ue[4].cellularNic.phy averageCqiDl:vector:sum 0
scalar SingleCell.ue[4].cellularNic.phy averageCqiDl:vector:sumweights 0
scalar SingleCell.ue[4].cellularNic.phy averageCqiDl:vector:mean -nan
scalar SingleCell.ue[4].cellularNic.phy averageCqiDl:vector:stddev nan
scalar SingleCell.ue[4].cellularNic.phy averageCqiDl:vector:min inf
scalar SingleCell.ue[4].cellularNic.phy averageCqiDl:vector:max -inf
scalar SingleCell.ue[4].cellularNic.phy averageCqiDl:vector:starttime nan
scalar SingleCell.ue[4].cellularNic.phy averageCqiDl:vector:endtime nan
scalar SingleCell.ue[4].cellularNic.phy averageCqiUl:vector:count 0
scalar SingleCell.ue[4].cellularNic.phy averageCqiUl:vector:sum 0
scalar SingleCell.ue[4].cellularNic.phy averageCqiUl:vector:sumweights 0
scalar SingleCell.ue[4].cellularNic.phy averageCqiUl:vector:mean -nan
scalar SingleCell.ue[4].cellularNic.phy averageCqiUl:vector:stddev nan
scalar SingleCell.ue[4].cellularNic.phy averageCqiUl:vector:min inf
scalar SingleCell.ue[4].cellularNic.phy averageCqiUl:vector:max -inf
scalar SingleCell.ue[4].cellularNic.phy averageCqiUl:vector:starttime nan
scalar SingleCell.ue[4].cellularNic.phy averageCqiUl:vector:endtime nan
scalar SingleCell.ue[4].cellularNic.channelModel[0] rcvdSinrDl:vector:count 0
scalar SingleCell.ue[4].cellularNic.channelModel[0] rcvdSinrDl:vector:sum 0
scalar SingleCell.ue[4].cellularNic.channelModel[0] rcvdSinrDl:vector:sumweights 0
scalar SingleCell.ue[4].cellularNic.channelModel[0] rcvdSinrDl:vector:mean -nan
scalar SingleCell.ue[4].cellularNic.channelModel[0] rcvdSinrDl:vector:stddev nan
scalar SingleCell.ue[4].cellularNic.channelModel[0] rcvdSinrDl:vector:min inf
scalar SingleCell.ue[4].cellularNic.channelModel[0] rcvdSinrDl:vector:max -inf
scalar SingleCell.ue[4].cellularNic.channelModel[0] rcvdSinrDl:vector:starttime nan
scalar SingleCell.ue[4].cellularNic.channelModel[0] rcvdSinrDl:vector:endtime nan
scalar SingleCell.ue[4].cellularNic.channelModel[0] rcvdSinrUl:vector:count 0
scalar SingleCell.ue[4].cellularNic.channelModel[0] rcvdSinrUl:vector:sum 0
scalar SingleCell.ue[4].cellularNic.channelModel[0] rcvdSinrUl:vector:sumweights 0
scalar SingleCell.ue[4].cellularNic.channelModel[0] rcvdSinrUl:vector:mean -nan
scalar SingleCell.ue[4].cellularNic.channelModel[0] rcvdSinrUl:vector:stddev nan
scalar SingleCell.ue[4].cellularNic.channelModel[0] rcvdSinrUl:vector:min inf
scalar SingleCell.ue[4].cellularNic.channelModel[0] rcvdSinrUl:vector:max -inf
scalar SingleCell.ue[4].cellularNic.channelModel[0] rcvdSinrUl:vector:starttime nan
scalar SingleCell.ue[4].cellularNic.channelModel[0] rcvdSinrUl:vector:endtime nan
scalar SingleCell.ue[4].cellularNic.channelModel[0] rcvdSinrD2D:vector:count 0
scalar SingleCell.ue[4].cellularNic.channelModel[0] rcvdSinrD2D:vector:sum 0
scalar SingleCell.ue[4].cellularNic.channelModel[0] rcvdSinrD2D:vector:sumweights 0
scalar SingleCell.ue[4].cellularNic.channelModel[0] rcvdSinrD2D:vector:mean -nan
scalar SingleCell.ue[4].cellularNic.channelModel[0] rcvdSinrD2D:vector:stddev nan
scalar SingleCell.ue[4].cellularNic.channelModel[0] rcvdSinrD2D:vector:min inf
scalar SingleCell.ue[4].cellularNic.channelModel[0] rcvdSinrD2D:vector:max -inf
scalar SingleCell.ue[4].cellularNic.channelModel[0] rcvdSinrD2D:vector:starttime nan
scalar SingleCell.ue[4].cellularNic.channelModel[0] rcvdSinrD2D:vector:endtime nan
scalar SingleCell.ue[4].cellularNic.channelModel[0] measuredSinrDl:vector:count 0
scalar SingleCell.ue[4].cellularNic.channelModel[0] measuredSinrDl:vector:sum 0
scalar SingleCell.ue[4].cellularNic.channelModel[0] measuredSinrDl:vector:sumweights 0
scalar SingleCell.ue[4].cellularNic.channelModel[0] measuredSinrDl:vector:mean -nan
scalar SingleCell.ue[4].cellularNic.channelModel[0] measuredSinrDl:vector:stddev nan
scalar SingleCell.ue[4].cellularNic.channelModel[0] measuredSinrDl:vector:min inf
scalar SingleCell.ue[4].cellularNic.channelModel[0] measuredSinrDl:vector:max -inf
scalar SingleCell.ue[4].cellularNic.channelModel[0] measuredSinrDl:vector:starttime nan
scalar SingleCell.ue[4].cellularNic.channelModel[0] measuredSinrDl:vector:endtime nan
scalar SingleCell.ue[4].cellularNic.channelModel[0] measuredSinrUl:vector:count 0
scalar SingleCell.ue[4].cellularNic.channelModel[0] measuredSinrUl:vector:sum 0
scalar SingleCell.ue[4].cellularNic.channelModel[0] measuredSinrUl:vector:sumweights 0
scalar SingleCell.ue[4].cellularNic.channelModel[0] measuredSinrUl:vector:mean -nan
scalar SingleCell.ue[4].cellularNic.channelModel[0] measuredSinrUl:vector:stddev nan
scalar SingleCell.ue[4].cellularNic.channelModel[0] measuredSinrUl:vector:min inf
scalar SingleCell.ue[4].cellularNic.channelModel[0] measuredSinrUl:vector:max -inf
scalar SingleCell.ue[4].cellularNic.channelModel[0] measuredSinrUl:vector:starttime nan
scalar SingleCell.ue[4].cellularNic.channelModel[0] measuredSinrUl:vector:endtime nan
scalar SingleCell.ue[4].cellularNic packetDropInterfaceDown:vector(packetBytes):count 0
scalar SingleCell.ue[4].cellularNic packetDropInterfaceDown:vector(packetBytes):sum 0
scalar SingleCell.ue[4].cellularNic packetDropInterfaceDown:vector(packetBytes):sumweights 0
scalar SingleCell.ue[4].cellularNic packetDropInterfaceDown:vector(packetBytes):mean -nan
scalar SingleCell.ue[4].cellularNic packetDropInterfaceDown:vector(packetBytes):stddev nan
scalar SingleCell.ue[4].cellularNic packetDropInterfaceDown:vector(packetBytes):min inf
scalar SingleCell.ue[4].cellularNic packetDropInterfaceDown:vector(packetBytes):max -inf
scalar SingleCell.ue[4].cellularNic packetDropInterfaceDown:vector(packetBytes):starttime nan
scalar SingleCell.ue[4].cellularNic packetDropInterfaceDown:vector(packetBytes):endtime nan
scalar SingleCell.ue[4].cellularNic packetDropNoCarrier:vector(packetBytes):count 0
scalar SingleCell.ue[4].cellularNic packetDropNoCarrier:vector(packetBytes):sum 0
scalar SingleCell.ue[4].cellularNic packetDropNoCarrier:vector(packetBytes):sumweights 0
scalar SingleCell.ue[4].cellularNic packetDropNoCarrier:vector(packetBytes):mean -nan
scalar SingleCell.ue[4].cellularNic packetDropNoCarrier:vector(packetBytes):stddev nan
scalar SingleCell.ue[4].cellularNic packetDropNoCarrier:vector(packetBytes):min inf
scalar SingleCell.ue[4].cellularNic packetDropNoCarrier:vector(packetBytes):max -inf
scalar SingleCell.ue[4].cellularNic packetDropNoCarrier:vector(packetBytes):starttime nan
scalar SingleCell.ue[4].cellularNic packetDropNoCarrier:vector(packetBytes):endtime nan
scalar SingleCell.ue[4].encap encapPk:vector(packetBytes):count 0
scalar SingleCell.ue[4].encap encapPk:vector(packetBytes):sum 0
scalar SingleCell.ue[4].encap encapPk:vector(packetBytes):sumweights 0
scalar SingleCell.ue[4].encap encapPk:vector(packetBytes):mean -nan
scalar SingleCell.ue[4].encap encapPk:vector(packetBytes):stddev nan
scalar SingleCell.ue[4].encap encapPk:vector(packetBytes):min inf
scalar SingleCell.ue[4].encap encapPk:vector(packetBytes):max -inf
scalar SingleCell.ue[4].encap encapPk:vector(packetBytes):starttime nan
scalar SingleCell.ue[4].encap encapPk:vector(packetBytes):endtime nan
scalar SingleCell.ue[4].encap decapPk:vector(packetBytes):count 0
scalar SingleCell.ue[4].encap decapPk:vector(packetBytes):sum 0
scalar SingleCell.ue[4].encap decapPk:vector(packetBytes):sumweights 0
scalar SingleCell.ue[4].encap decapPk:vector(packetBytes):mean -nan
scalar SingleCell.ue[4].encap decapPk:vector(packetBytes):stddev nan
scalar SingleCell.ue[4].encap decapPk:vector(packetBytes):min inf
scalar SingleCell.ue[4].encap decapPk:vector(packetBytes):max -inf
scalar SingleCell.ue[4].encap decapPk:vector(packetBytes):starttime nan
scalar SingleCell.ue[4].encap decapPk:vector(packetBytes):endtime nan
scalar SingleCell.ue[4].encap pauseSent:vector:count 0
scalar SingleCell.ue[4].encap pauseSent:vector:sum 0
scalar SingleCell.ue[4].encap pauseSent:vector:sumweights 0
scalar SingleCell.ue[4].encap pauseSent:vector:mean -nan
scalar SingleCell.ue[4].encap pauseSent:vector:stddev nan
scalar SingleCell.ue[4].encap pauseSent:vector:min inf
scalar SingleCell.ue[4].encap pauseSent:vector:max -inf
scalar SingleCell.ue[4].encap pauseSent:vector:starttime nan
scalar SingleCell.ue[4].encap pauseSent:vector:endtime nan
scalar SingleCell.ue[4].ipv4.ip packetDropAddressResolutionFailed:vector(packetBytes):count 0
scalar SingleCell.ue[4].ipv4.ip packetDropAddressResolutionFailed:vector(packetBytes):sum 0
scalar SingleCell.ue[4].ipv4.ip packetDropAddressResolutionFailed:vector(packetBytes):sumweights 0
scalar SingleCell.ue[4].ipv4.ip packetDropAddressResolutionFailed:vector(packetBytes):mean -nan
scalar SingleCell.ue[4].ipv4.ip packetDropAddressResolutionFailed:vector(packetBytes):stddev nan
scalar SingleCell.ue[4].ipv4.ip packetDropAddressResolutionFailed:vector(packetBytes):min inf
scalar SingleCell.ue[4].ipv4.ip packetDropAddressResolutionFailed:vector(packetBytes):max -inf
scalar SingleCell.ue[4].ipv4.ip packetDropAddressResolutionFailed:vector(packetBytes):starttime nan
scalar SingleCell.ue[4].ipv4.ip packetDropAddressResolutionFailed:vector(packetBytes):endtime nan
scalar SingleCell.ue[4].ipv4.ip packetDropHopLimitReached:vector(packetBytes):count 0
scalar SingleCell.ue[4].ipv4.ip packetDropHopLimitReached:vector(packetBytes):sum 0
scalar SingleCell.ue[4].ipv4.ip packetDropHopLimitReached:vector(packetBytes):sumweights 0
scalar SingleCell.ue[4].ipv4.ip packetDropHopLimitReached:vector(packetBytes):mean -nan
scalar SingleCell.ue[4].ipv4.ip packetDropHopLimitReached:vector(packetBytes):stddev nan
scalar SingleCell.ue[4].ipv4.ip packetDropHopLimitReached:vector(packetBytes):min inf
scalar SingleCell.ue[4].ipv4.ip packetDropHopLimitReached:vector(packetBytes):max -inf
scalar SingleCell.ue[4].ipv4.ip packetDropHopLimitReached:vector(packetBytes):starttime nan
scalar SingleCell.ue[4].ipv4.ip packetDropHopLimitReached:vector(packetBytes):endtime nan
scalar SingleCell.ue[4].ipv4.ip packetDropForwardingDisabled:vector(packetBytes):count 0
scalar SingleCell.ue[4].ipv4.ip packetDropForwardingDisabled:vector(packetBytes):sum 0
scalar SingleCell.ue[4].ipv4.ip packetDropForwardingDisabled:vector(packetBytes):sumweights 0
scalar SingleCell.ue[4].ipv4.ip packetDropForwardingDisabled:vector(packetBytes):mean -nan
scalar SingleCell.ue[4].ipv4.ip packetDropForwardingDisabled:vector(packetBytes):stddev nan
scalar SingleCell.ue[4].ipv4.ip packetDropForwardingDisabled:vector(packetBytes):min inf
scalar SingleCell.ue[4].ipv4.ip packetDropForwardingDisabled:vector(packetBytes):max -inf
scalar SingleCell.ue[4].ipv4.ip packetDropForwardingDisabled:vector(packetBytes):starttime nan
scalar SingleCell.ue[4].ipv4.ip packetDropForwardingDisabled:vector(packetBytes):endtime nan
scalar SingleCell.ue[4].ipv4.ip packetDropNoInterfaceFound:vector(packetBytes):count 0
scalar SingleCell.ue[4].ipv4.ip packetDropNoInterfaceFound:vector(packetBytes):sum 0
scalar SingleCell.ue[4].ipv4.ip packetDropNoInterfaceFound:vector(packetBytes):sumweights 0
scalar SingleCell.ue[4].ipv4.ip packetDropNoInterfaceFound:vector(packetBytes):mean -nan
scalar SingleCell.ue[4].ipv4.ip packetDropNoInterfaceFound:vector(packetBytes):stddev nan
scalar SingleCell.ue[4].ipv4.ip packetDropNoInterfaceFound:vector(packetBytes):min inf
scalar SingleCell.ue[4].ipv4.ip packetDropNoInterfaceFound:vector(packetBytes):max -inf
scalar SingleCell.ue[4].ipv4.ip packetDropNoInterfaceFound:vector(packetBytes):starttime nan
scalar SingleCell.ue[4].ipv4.ip packetDropNoInterfaceFound:vector(packetBytes):endtime nan
scalar SingleCell.ue[4].ipv4.ip packetDropNoRouteFound:vector(packetBytes):count 0
scalar SingleCell.ue[4].ipv4.ip packetDropNoRouteFound:vector(packetBytes):sum 0
scalar SingleCell.ue[4].ipv4.ip packetDropNoRouteFound:vector(packetBytes):sumweights 0
scalar SingleCell.ue[4].ipv4.ip packetDropNoRouteFound:vector(packetBytes):mean -nan
scalar SingleCell.ue[4].ipv4.ip packetDropNoRouteFound:vector(packetBytes):stddev nan
scalar SingleCell.ue[4].ipv4.ip packetDropNoRouteFound:vector(packetBytes):min inf
scalar SingleCell.ue[4].ipv4.ip packetDropNoRouteFound:vector(packetBytes):max -inf
scalar SingleCell.ue[4].ipv4.ip packetDropNoRouteFound:vector(packetBytes):starttime nan
scalar SingleCell.ue[4].ipv4.ip packetDropNoRouteFound:vector(packetBytes):endtime nan
scalar SingleCell.ue[4].ipv4.ip packetDropUndefined:vector(packetBytes):count 0
scalar SingleCell.ue[4].ipv4.ip packetDropUndefined:vector(packetBytes):sum 0
scalar SingleCell.ue[4].ipv4.ip packetDropUndefined:vector(packetBytes):sumweights 0
scalar SingleCell.ue[4].ipv4.ip packetDropUndefined:vector(packetBytes):mean -nan
scalar SingleCell.ue[4].ipv4.ip packetDropUndefined:vector(packetBytes):stddev nan
scalar SingleCell.ue[4].ipv4.ip packetDropUndefined:vector(packetBytes):min inf
scalar SingleCell.ue[4].ipv4.ip packetDropUndefined:vector(packetBytes):max -inf
scalar SingleCell.ue[4].ipv4.ip packetDropUndefined:vector(packetBytes):starttime nan
scalar SingleCell.ue[4].ipv4.ip packetDropUndefined:vector(packetBytes):endtime nan
scalar SingleCell.ue[4].ipv4.arp arpRequestSent:vector(packetBytes):count 0
scalar SingleCell.ue[4].ipv4.arp arpRequestSent:vector(packetBytes):sum 0
scalar SingleCell.ue[4].ipv4.arp arpRequestSent:vector(packetBytes):sumweights 0
scalar SingleCell.ue[4].ipv4.arp arpRequestSent:vector(packetBytes):mean -nan
scalar SingleCell.ue[4].ipv4.arp arpRequestSent:vector(packetBytes):stddev nan
scalar SingleCell.ue[4].ipv4.arp arpRequestSent:vector(packetBytes):min inf
scalar SingleCell.ue[4].ipv4.arp arpRequestSent:vector(packetBytes):max -inf
scalar SingleCell.ue[4].ipv4.arp arpRequestSent:vector(packetBytes):starttime nan
scalar SingleCell.ue[4].ipv4.arp arpRequestSent:vector(packetBytes):endtime nan
scalar SingleCell.ue[4].ipv4.arp arpReplySent:vector(packetBytes):count 0
scalar SingleCell.ue[4].ipv4.arp arpReplySent:vector(packetBytes):sum 0
scalar SingleCell.ue[4].ipv4.arp arpReplySent:vector(packetBytes):sumweights 0
scalar SingleCell.ue[4].ipv4.arp arpReplySent:vector(packetBytes):mean -nan
scalar SingleCell.ue[4].ipv4.arp arpReplySent:vector(packetBytes):stddev nan
scalar SingleCell.ue[4].ipv4.arp arpReplySent:vector(packetBytes):min inf
scalar SingleCell.ue[4].ipv4.arp arpReplySent:vector(packetBytes):max -inf
scalar SingleCell.ue[4].ipv4.arp arpReplySent:vector(packetBytes):starttime nan
scalar SingleCell.ue[4].ipv4.arp arpReplySent:vector(packetBytes):endtime nan
scalar SingleCell.ue[4].udp packetSent:vector(packetBytes):count 0
scalar SingleCell.ue[4].udp packetSent:vector(packetBytes):sum 0
scalar SingleCell.ue[4].udp packetSent:vector(packetBytes):sumweights 0
scalar SingleCell.ue[4].udp packetSent:vector(packetBytes):mean -nan
scalar SingleCell.ue[4].udp packetSent:vector(packetBytes):stddev nan
scalar SingleCell.ue[4].udp packetSent:vector(packetBytes):min inf
scalar SingleCell.ue[4].udp packetSent:vector(packetBytes):max -inf
scalar SingleCell.ue[4].udp packetSent:vector(packetBytes):starttime nan
scalar SingleCell.ue[4].udp packetSent:vector(packetBytes):endtime nan
scalar SingleCell.ue[4].udp packetReceived:vector(packetBytes):count 0
scalar SingleCell.ue[4].udp packetReceived:vector(packetBytes):sum 0
scalar SingleCell.ue[4].udp packetReceived:vector(packetBytes):sumweights 0
scalar SingleCell.ue[4].udp packetReceived:vector(packetBytes):mean -nan
scalar SingleCell.ue[4].udp packetReceived:vector(packetBytes):stddev nan
scalar SingleCell.ue[4].udp packetReceived:vector(packetBytes):min inf
scalar SingleCell.ue[4].udp packetReceived:vector(packetBytes):max -inf
scalar SingleCell.ue[4].udp packetReceived:vector(packetBytes):starttime nan
scalar SingleCell.ue[4].udp packetReceived:vector(packetBytes):endtime nan
scalar SingleCell.ue[4].udp passedUpPk:vector(count):count 0
scalar SingleCell.ue[4].udp passedUpPk:vector(count):sum 0
scalar SingleCell.ue[4].udp passedUpPk:vector(count):sumweights 0
scalar SingleCell.ue[4].udp passedUpPk:vector(count):mean -nan
scalar SingleCell.ue[4].udp passedUpPk:vector(count):stddev nan
scalar SingleCell.ue[4].udp passedUpPk:vector(count):min inf
scalar SingleCell.ue[4].udp passedUpPk:vector(count):max -inf
scalar SingleCell.ue[4].udp passedUpPk:vector(count):starttime nan
scalar SingleCell.ue[4].udp passedUpPk:vector(count):endtime nan
scalar SingleCell.ue[4].udp droppedPkWrongPort:vector(count):count 0
scalar SingleCell.ue[4].udp droppedPkWrongPort:vector(count):sum 0
scalar SingleCell.ue[4].udp droppedPkWrongPort:vector(count):sumweights 0
scalar SingleCell.ue[4].udp droppedPkWrongPort:vector(count):mean -nan
scalar SingleCell.ue[4].udp droppedPkWrongPort:vector(count):stddev nan
scalar SingleCell.ue[4].udp droppedPkWrongPort:vector(count):min inf
scalar SingleCell.ue[4].udp droppedPkWrongPort:vector(count):max -inf
scalar SingleCell.ue[4].udp droppedPkWrongPort:vector(count):starttime nan
scalar SingleCell.ue[4].udp droppedPkWrongPort:vector(count):endtime nan
scalar SingleCell.ue[4].udp droppedPkBadChecksum:vector(count):count 0
scalar SingleCell.ue[4].udp droppedPkBadChecksum:vector(count):sum 0
scalar SingleCell.ue[4].udp droppedPkBadChecksum:vector(count):sumweights 0
scalar SingleCell.ue[4].udp droppedPkBadChecksum:vector(count):mean -nan
scalar SingleCell.ue[4].udp droppedPkBadChecksum:vector(count):stddev nan
scalar SingleCell.ue[4].udp droppedPkBadChecksum:vector(count):min inf
scalar SingleCell.ue[4].udp droppedPkBadChecksum:vector(count):max -inf
scalar SingleCell.ue[4].udp droppedPkBadChecksum:vector(count):starttime nan
scalar SingleCell.ue[4].udp droppedPkBadChecksum:vector(count):endtime nan
scalar SingleCell.ue[4].app[0] voipFrameDelay:vector:count 0
scalar SingleCell.ue[4].app[0] voipFrameDelay:vector:sum 0
scalar SingleCell.ue[4].app[0] voipFrameDelay:vector:sumweights 0
scalar SingleCell.ue[4].app[0] voipFrameDelay:vector:mean -nan
scalar SingleCell.ue[4].app[0] voipFrameDelay:vector:stddev nan
scalar SingleCell.ue[4].app[0] voipFrameDelay:vector:min inf
scalar SingleCell.ue[4].app[0] voipFrameDelay:vector:max -inf
scalar SingleCell.ue[4].app[0] voipFrameDelay:vector:starttime nan
scalar SingleCell.ue[4].app[0] voipFrameDelay:vector:endtime nan
scalar SingleCell.ue[4].app[0] voipReceivedThroughput:vector:count 0
scalar SingleCell.ue[4].app[0] voipReceivedThroughput:vector:sum 0
scalar SingleCell.ue[4].app[0] voipReceivedThroughput:vector:sumweights 0
scalar SingleCell.ue[4].app[0] voipReceivedThroughput:vector:mean -nan
scalar SingleCell.ue[4].app[0] voipReceivedThroughput:vector:stddev nan
scalar SingleCell.ue[4].app[0] voipReceivedThroughput:vector:min inf
scalar SingleCell.ue[4].app[0] voipReceivedThroughput:vector:max -inf
scalar SingleCell.ue[4].app[0] voipReceivedThroughput:vector:starttime nan
scalar SingleCell.ue[4].app[0] voipReceivedThroughput:vector:endtime nan

