version 3
run SingleCell-UL-0-20260709-21:30:18-651096
attr configname SingleCell-UL
attr datetime 20260709-21:30:18
attr datetimef 20260709-213018
attr experiment SingleCell-UL
attr inifile omnetpp.ini
attr iterationvars $numUEs=5
attr iterationvarsd numUEs=5
attr iterationvarsf numUEs=5-
attr measurement $numUEs=5
attr network simu5g.simulations.lte.networks.SingleCell
attr processid 651096
attr repetition 0
attr replication #0
attr resultdir results
attr runnumber 0
attr seedset 0
itervar numUEs 5
config **.param-recording false
config image-path /home/andras/projects/Simu5G-fork/simu5g-fork/images
config output-scalar-file results/omnetpp.ini-SingleCell-UL-#0.sca
config output-scalar-precision 17
config output-vector-file results/omnetpp.ini-SingleCell-UL-#0.vec
config output-vector-precision 17
config record-eventlog false
config sim-time-limit 5s
config extends SingleCell
config *.server.app[*].typename VoipReceiver
config *.server.app[*].localPort 3000+ancestorIndex(0)
config *.ue[*].app[*].destAddress "\"server\""
config *.ue[*].app[*].destPort 3000+ancestorIndex(1)
config *.ue[*].app[*].localPort 3088
config *.ue[*].app[*].typename VoipSender
config *.ue[*].app[*].startTime uniform(0s,0.02s)
config network simu5g.simulations.lte.networks.SingleCell
config *.numUe 5
config *.ue[*].numApps 1
config *.server.numApps 5
config **.ue[*].macCellId 1
config **.ue[*].masterId 1
config *.eNB.mobility.initFromDisplayString false
config *.eNB.mobility.initialX 300m
config *.eNB.mobility.initialY 300m
config *.ue[*].mobility.constraintAreaMaxX 600m
config *.ue[*].mobility.constraintAreaMaxY 600m
config *.ue[*].mobility.constraintAreaMinX 0m
config *.ue[*].mobility.constraintAreaMinY 0m
config *.ue[*].mobility.initFromDisplayString false
config *.ue[*].mobility.initialX uniform(0m,600m)
config *.ue[*].mobility.initialY uniform(0m,600m)
config *.ue[*].mobility.speed 1mps
config *.ue[*].mobility.typename LinearMobility
config print-undisposed true
config **.vector-recording false
config **.routingRecorder.enabled false
config sim-time-limit 5s
config warmup-period 2s
config repeat 1
config **.mobility.constraintAreaMinZ 0m
config **.mobility.constraintAreaMaxZ 0m
config **.rbAllocationType "\"localized\""
config **.numBands 6
config output-scalar-file results/SingleCell-UL/0.sca
config output-vector-file results/SingleCell-UL/0.vec
config seed-set 0
config *.configurator.config "xmldoc(\"./demo.xml\")"

scalar SingleCell.server.lo[0].lo rcvdPkFromHl:count 0
scalar SingleCell.server.lo[0].lo rcvdPkFromHl:sum(packetBytes) 0
scalar SingleCell.server.lo[0].lo passedUpPk:count 0
scalar SingleCell.server.lo[0].lo passedUpPk:sum(packetBytes) 0
scalar SingleCell.server.lo[0] packetDropInterfaceDown:count 0
scalar SingleCell.server.lo[0] packetDropInterfaceDown:sum(packetBytes) 0
scalar SingleCell.server.lo[0] packetDropNoCarrier:count 0
scalar SingleCell.server.lo[0] packetDropNoCarrier:sum(packetBytes) 0
scalar SingleCell.server.ppp[0].queue queueLength:last 0
scalar SingleCell.server.ppp[0].queue queueLength:max 0
scalar SingleCell.server.ppp[0].queue queueLength:timeavg 0
scalar SingleCell.server.ppp[0].queue queueBitLength:last 0
scalar SingleCell.server.ppp[0].queue queueBitLength:max 0
scalar SingleCell.server.ppp[0].queue queueBitLength:timeavg 0
scalar SingleCell.server.ppp[0].queue outgoingPackets:count 0
scalar SingleCell.server.ppp[0].queue outgoingPacketLengths:sum 0
scalar SingleCell.server.ppp[0].queue incomingPackets:count 0
scalar SingleCell.server.ppp[0].queue incomingPacketLengths:sum 0
scalar SingleCell.server.ppp[0].queue droppedPacketsQueueOverflow:count 0
scalar SingleCell.server.ppp[0].queue droppedPacketLengthsQueueOverflow:sum 0
scalar SingleCell.server.ppp[0].ppp transmissionState:timeavg -nan
scalar SingleCell.server.ppp[0].ppp rxPkOk:count 551
scalar SingleCell.server.ppp[0].ppp rxPkOk:sum(packetBytes) 41325
scalar SingleCell.server.ppp[0].ppp txPk:count 0
scalar SingleCell.server.ppp[0].ppp txPk:sum(packetBytes) 0
scalar SingleCell.server.ppp[0].ppp rcvdPkFromHl:count 0
scalar SingleCell.server.ppp[0].ppp rcvdPkFromHl:sum(packetBytes) 0
scalar SingleCell.server.ppp[0].ppp passedUpPk:count 551
scalar SingleCell.server.ppp[0].ppp passedUpPk:sum(packetBytes) 37468
scalar SingleCell.server.ppp[0].ppp packetDropIncorrectlyReceived:count 0
scalar SingleCell.server.ppp[0].ppp packetDropIncorrectlyReceived:sum(packetBytes) 0
scalar SingleCell.server.ppp[0].ppp packetDropInterfaceDown:count 0
scalar SingleCell.server.ppp[0].ppp packetDropInterfaceDown:sum(packetBytes) 0
scalar SingleCell.server.ppp[0] packetDropInterfaceDown:count 0
scalar SingleCell.server.ppp[0] packetDropInterfaceDown:sum(packetBytes) 0
scalar SingleCell.server.ppp[0] packetDropNoCarrier:count 0
scalar SingleCell.server.ppp[0] packetDropNoCarrier:sum(packetBytes) 0
scalar SingleCell.server.ipv4.ip packetDropAddressResolutionFailed:count 0
scalar SingleCell.server.ipv4.ip packetDropAddressResolutionFailed:sum(packetBytes) 0
scalar SingleCell.server.ipv4.ip packetDropHopLimitReached:count 0
scalar SingleCell.server.ipv4.ip packetDropHopLimitReached:sum(packetBytes) 0
scalar SingleCell.server.ipv4.ip packetDropForwardingDisabled:count 0
scalar SingleCell.server.ipv4.ip packetDropForwardingDisabled:sum(packetBytes) 0
scalar SingleCell.server.ipv4.ip packetDropNoInterfaceFound:count 0
scalar SingleCell.server.ipv4.ip packetDropNoInterfaceFound:sum(packetBytes) 0
scalar SingleCell.server.ipv4.ip packetDropNoRouteFound:count 0
scalar SingleCell.server.ipv4.ip packetDropNoRouteFound:sum(packetBytes) 0
scalar SingleCell.server.ipv4.ip packetDropUndefined:count 0
scalar SingleCell.server.ipv4.ip packetDropUndefined:sum(packetBytes) 0
scalar SingleCell.server.ipv4.arp arpResolutionFailed:count 0
scalar SingleCell.server.ipv4.arp arpResolutionCompleted:count 0
scalar SingleCell.server.ipv4.arp arpResolutionInitiated:count 0
scalar SingleCell.server.ipv4.arp arpReplySent:count 0
scalar SingleCell.server.ipv4.arp arpReplySent:sum(packetBytes) 0
scalar SingleCell.server.ipv4.arp arpRequestSent:count 0
scalar SingleCell.server.ipv4.arp arpRequestSent:sum(packetBytes) 0
scalar SingleCell.server.udp packetReceived:count 551
scalar SingleCell.server.udp packetReceived:sum(packetBytes) 26448
scalar SingleCell.server.udp packetSent:count 0
scalar SingleCell.server.udp packetSent:sum(packetBytes) 0
scalar SingleCell.server.udp passedUpPk:count 551
scalar SingleCell.server.udp droppedPkWrongPort:count 0
scalar SingleCell.server.udp droppedPkBadChecksum:count 0
scalar SingleCell.server.app[0] voIPReceivedThroughput:mean 4483.8550112533503
scalar SingleCell.server.app[0] voIPPlayoutLoss:mean 0.018383838383838384
scalar SingleCell.server.app[0] voIPJitter:mean 0.015000022199999999
scalar SingleCell.server.app[0] voIPTaildropLoss:mean 0
scalar SingleCell.server.app[0] voIPMos:mean 3.9906578406008788
scalar SingleCell.server.app[0] voIPPlayoutDelay:mean 0.0030000000000000001
scalar SingleCell.server.app[0] voIPFrameDelay:mean 0.0088422919361294938
scalar SingleCell.server.app[0] voIPFrameLoss:mean 0
scalar SingleCell.server.app[1] voIPReceivedThroughput:mean 16933.904686323553
scalar SingleCell.server.app[1] voIPPlayoutLoss:mean 0.071428571428571425
scalar SingleCell.server.app[1] voIPJitter:mean 0.021666696266666671
scalar SingleCell.server.app[1] voIPTaildropLoss:mean 0
scalar SingleCell.server.app[1] voIPMos:mean 3.2429934063325874
scalar SingleCell.server.app[1] voIPPlayoutDelay:mean 0
scalar SingleCell.server.app[1] voIPFrameDelay:mean 0.01284309443416983
scalar SingleCell.server.app[1] voIPFrameLoss:mean 0
scalar SingleCell.server.app[2] voIPReceivedThroughput:mean 10797.139073564249
scalar SingleCell.server.app[2] voIPPlayoutLoss:mean 0.048913043478260872
scalar SingleCell.server.app[2] voIPJitter:mean 0.034222301155555558
scalar SingleCell.server.app[2] voIPTaildropLoss:mean 0
scalar SingleCell.server.app[2] voIPMos:mean 3.2862562383802896
scalar SingleCell.server.app[2] voIPPlayoutDelay:mean 0
scalar SingleCell.server.app[2] voIPFrameDelay:mean 0.018107858033095267
scalar SingleCell.server.app[2] voIPFrameLoss:mean 0
scalar SingleCell.server.app[3] voIPReceivedThroughput:mean 1934.8187300001291
scalar SingleCell.server.app[3] voIPPlayoutLoss:mean 0.045770202020202023
scalar SingleCell.server.app[3] voIPJitter:mean 0.0059999999999999993
scalar SingleCell.server.app[3] voIPTaildropLoss:mean 0
scalar SingleCell.server.app[3] voIPMos:mean 3.4991116213597362
scalar SingleCell.server.app[3] voIPPlayoutDelay:mean 0.002
scalar SingleCell.server.app[3] voIPFrameDelay:mean 0.0089234993959166758
scalar SingleCell.server.app[3] voIPFrameLoss:mean 0
scalar SingleCell.server.app[4] voIPReceivedThroughput:mean 10322.412217308867
scalar SingleCell.server.app[4] voIPPlayoutLoss:mean 0.040133779264214048
scalar SingleCell.server.app[4] voIPJitter:mean 0.017750022200000003
scalar SingleCell.server.app[4] voIPTaildropLoss:mean 0
scalar SingleCell.server.app[4] voIPMos:mean 3.473999424878869
scalar SingleCell.server.app[4] voIPPlayoutDelay:mean 0
scalar SingleCell.server.app[4] voIPFrameDelay:mean 0.0095835645676666751
scalar SingleCell.server.app[4] voIPFrameLoss:mean 0
scalar SingleCell.router.lo[0].lo rcvdPkFromHl:count 0
scalar SingleCell.router.lo[0].lo rcvdPkFromHl:sum(packetBytes) 0
scalar SingleCell.router.lo[0].lo passedUpPk:count 0
scalar SingleCell.router.lo[0].lo passedUpPk:sum(packetBytes) 0
scalar SingleCell.router.lo[0] packetDropInterfaceDown:count 0
scalar SingleCell.router.lo[0] packetDropInterfaceDown:sum(packetBytes) 0
scalar SingleCell.router.lo[0] packetDropNoCarrier:count 0
scalar SingleCell.router.lo[0] packetDropNoCarrier:sum(packetBytes) 0
scalar SingleCell.router.ppp[0].queue queueLength:last 0
scalar SingleCell.router.ppp[0].queue queueLength:max 0
scalar SingleCell.router.ppp[0].queue queueLength:timeavg 0
scalar SingleCell.router.ppp[0].queue queueBitLength:last 0
scalar SingleCell.router.ppp[0].queue queueBitLength:max 0
scalar SingleCell.router.ppp[0].queue queueBitLength:timeavg 0
scalar SingleCell.router.ppp[0].queue outgoingPackets:count 551
scalar SingleCell.router.ppp[0].queue outgoingPacketLengths:sum 299744
scalar SingleCell.router.ppp[0].queue incomingPackets:count 551
scalar SingleCell.router.ppp[0].queue incomingPacketLengths:sum 299744
scalar SingleCell.router.ppp[0].queue droppedPacketsQueueOverflow:count 0
scalar SingleCell.router.ppp[0].queue droppedPacketLengthsQueueOverflow:sum 0
scalar SingleCell.router.ppp[0].ppp transmissionState:timeavg 1.1027352482856975e-05
scalar SingleCell.router.ppp[0].ppp rxPkOk:count 0
scalar SingleCell.router.ppp[0].ppp rxPkOk:sum(packetBytes) 0
scalar SingleCell.router.ppp[0].ppp txPk:count 551
scalar SingleCell.router.ppp[0].ppp txPk:sum(packetBytes) 41325
scalar SingleCell.router.ppp[0].ppp rcvdPkFromHl:count 551
scalar SingleCell.router.ppp[0].ppp rcvdPkFromHl:sum(packetBytes) 37468
scalar SingleCell.router.ppp[0].ppp passedUpPk:count 0
scalar SingleCell.router.ppp[0].ppp passedUpPk:sum(packetBytes) 0
scalar SingleCell.router.ppp[0].ppp packetDropIncorrectlyReceived:count 0
scalar SingleCell.router.ppp[0].ppp packetDropIncorrectlyReceived:sum(packetBytes) 0
scalar SingleCell.router.ppp[0].ppp packetDropInterfaceDown:count 0
scalar SingleCell.router.ppp[0].ppp packetDropInterfaceDown:sum(packetBytes) 0
scalar SingleCell.router.ppp[0] packetDropInterfaceDown:count 0
scalar SingleCell.router.ppp[0] packetDropInterfaceDown:sum(packetBytes) 0
scalar SingleCell.router.ppp[0] packetDropNoCarrier:count 0
scalar SingleCell.router.ppp[0] packetDropNoCarrier:sum(packetBytes) 0
scalar SingleCell.router.ppp[1].queue queueLength:last 0
scalar SingleCell.router.ppp[1].queue queueLength:max 0
scalar SingleCell.router.ppp[1].queue queueLength:timeavg 0
scalar SingleCell.router.ppp[1].queue queueBitLength:last 0
scalar SingleCell.router.ppp[1].queue queueBitLength:max 0
scalar SingleCell.router.ppp[1].queue queueBitLength:timeavg 0
scalar SingleCell.router.ppp[1].queue outgoingPackets:count 0
scalar SingleCell.router.ppp[1].queue outgoingPacketLengths:sum 0
scalar SingleCell.router.ppp[1].queue incomingPackets:count 0
scalar SingleCell.router.ppp[1].queue incomingPacketLengths:sum 0
scalar SingleCell.router.ppp[1].queue droppedPacketsQueueOverflow:count 0
scalar SingleCell.router.ppp[1].queue droppedPacketLengthsQueueOverflow:sum 0
scalar SingleCell.router.ppp[1].ppp transmissionState:timeavg -nan
scalar SingleCell.router.ppp[1].ppp rxPkOk:count 551
scalar SingleCell.router.ppp[1].ppp rxPkOk:sum(packetBytes) 41325
scalar SingleCell.router.ppp[1].ppp txPk:count 0
scalar SingleCell.router.ppp[1].ppp txPk:sum(packetBytes) 0
scalar SingleCell.router.ppp[1].ppp rcvdPkFromHl:count 0
scalar SingleCell.router.ppp[1].ppp rcvdPkFromHl:sum(packetBytes) 0
scalar SingleCell.router.ppp[1].ppp passedUpPk:count 551
scalar SingleCell.router.ppp[1].ppp passedUpPk:sum(packetBytes) 37468
scalar SingleCell.router.ppp[1].ppp packetDropIncorrectlyReceived:count 0
scalar SingleCell.router.ppp[1].ppp packetDropIncorrectlyReceived:sum(packetBytes) 0
scalar SingleCell.router.ppp[1].ppp packetDropInterfaceDown:count 0
scalar SingleCell.router.ppp[1].ppp packetDropInterfaceDown:sum(packetBytes) 0
scalar SingleCell.router.ppp[1] packetDropInterfaceDown:count 0
scalar SingleCell.router.ppp[1] packetDropInterfaceDown:sum(packetBytes) 0
scalar SingleCell.router.ppp[1] packetDropNoCarrier:count 0
scalar SingleCell.router.ppp[1] packetDropNoCarrier:sum(packetBytes) 0
scalar SingleCell.router.ipv4.ip packetDropAddressResolutionFailed:count 0
scalar SingleCell.router.ipv4.ip packetDropAddressResolutionFailed:sum(packetBytes) 0
scalar SingleCell.router.ipv4.ip packetDropHopLimitReached:count 0
scalar SingleCell.router.ipv4.ip packetDropHopLimitReached:sum(packetBytes) 0
scalar SingleCell.router.ipv4.ip packetDropForwardingDisabled:count 0
scalar SingleCell.router.ipv4.ip packetDropForwardingDisabled:sum(packetBytes) 0
scalar SingleCell.router.ipv4.ip packetDropNoInterfaceFound:count 0
scalar SingleCell.router.ipv4.ip packetDropNoInterfaceFound:sum(packetBytes) 0
scalar SingleCell.router.ipv4.ip packetDropNoRouteFound:count 0
scalar SingleCell.router.ipv4.ip packetDropNoRouteFound:sum(packetBytes) 0
scalar SingleCell.router.ipv4.ip packetDropUndefined:count 0
scalar SingleCell.router.ipv4.ip packetDropUndefined:sum(packetBytes) 0
scalar SingleCell.router.ipv4.arp arpResolutionFailed:count 0
scalar SingleCell.router.ipv4.arp arpResolutionCompleted:count 0
scalar SingleCell.router.ipv4.arp arpResolutionInitiated:count 0
scalar SingleCell.router.ipv4.arp arpReplySent:count 0
scalar SingleCell.router.ipv4.arp arpReplySent:sum(packetBytes) 0
scalar SingleCell.router.ipv4.arp arpRequestSent:count 0
scalar SingleCell.router.ipv4.arp arpRequestSent:sum(packetBytes) 0
scalar SingleCell.pgw.lo[0].lo rcvdPkFromHl:count 0
scalar SingleCell.pgw.lo[0].lo rcvdPkFromHl:sum(packetBytes) 0
scalar SingleCell.pgw.lo[0].lo passedUpPk:count 0
scalar SingleCell.pgw.lo[0].lo passedUpPk:sum(packetBytes) 0
scalar SingleCell.pgw.lo[0] packetDropInterfaceDown:count 0
scalar SingleCell.pgw.lo[0] packetDropInterfaceDown:sum(packetBytes) 0
scalar SingleCell.pgw.lo[0] packetDropNoCarrier:count 0
scalar SingleCell.pgw.lo[0] packetDropNoCarrier:sum(packetBytes) 0
scalar SingleCell.pgw.ppp[0].queue queueLength:last 0
scalar SingleCell.pgw.ppp[0].queue queueLength:max 0
scalar SingleCell.pgw.ppp[0].queue queueLength:timeavg 0
scalar SingleCell.pgw.ppp[0].queue queueBitLength:last 0
scalar SingleCell.pgw.ppp[0].queue queueBitLength:max 0
scalar SingleCell.pgw.ppp[0].queue queueBitLength:timeavg 0
scalar SingleCell.pgw.ppp[0].queue outgoingPackets:count 0
scalar SingleCell.pgw.ppp[0].queue outgoingPacketLengths:sum 0
scalar SingleCell.pgw.ppp[0].queue incomingPackets:count 0
scalar SingleCell.pgw.ppp[0].queue incomingPacketLengths:sum 0
scalar SingleCell.pgw.ppp[0].queue droppedPacketsQueueOverflow:count 0
scalar SingleCell.pgw.ppp[0].queue droppedPacketLengthsQueueOverflow:sum 0
scalar SingleCell.pgw.ppp[0].ppp transmissionState:timeavg -nan
scalar SingleCell.pgw.ppp[0].ppp rxPkOk:count 551
scalar SingleCell.pgw.ppp[0].ppp rxPkOk:sum(packetBytes) 61161
scalar SingleCell.pgw.ppp[0].ppp txPk:count 0
scalar SingleCell.pgw.ppp[0].ppp txPk:sum(packetBytes) 0
scalar SingleCell.pgw.ppp[0].ppp rcvdPkFromHl:count 0
scalar SingleCell.pgw.ppp[0].ppp rcvdPkFromHl:sum(packetBytes) 0
scalar SingleCell.pgw.ppp[0].ppp passedUpPk:count 551
scalar SingleCell.pgw.ppp[0].ppp passedUpPk:sum(packetBytes) 57304
scalar SingleCell.pgw.ppp[0].ppp packetDropIncorrectlyReceived:count 0
scalar SingleCell.pgw.ppp[0].ppp packetDropIncorrectlyReceived:sum(packetBytes) 0
scalar SingleCell.pgw.ppp[0].ppp packetDropInterfaceDown:count 0
scalar SingleCell.pgw.ppp[0].ppp packetDropInterfaceDown:sum(packetBytes) 0
scalar SingleCell.pgw.ppp[0] packetDropInterfaceDown:count 0
scalar SingleCell.pgw.ppp[0] packetDropInterfaceDown:sum(packetBytes) 0
scalar SingleCell.pgw.ppp[0] packetDropNoCarrier:count 0
scalar SingleCell.pgw.ppp[0] packetDropNoCarrier:sum(packetBytes) 0
scalar SingleCell.pgw.ipv4.ip packetDropAddressResolutionFailed:count 0
scalar SingleCell.pgw.ipv4.ip packetDropAddressResolutionFailed:sum(packetBytes) 0
scalar SingleCell.pgw.ipv4.ip packetDropHopLimitReached:count 0
scalar SingleCell.pgw.ipv4.ip packetDropHopLimitReached:sum(packetBytes) 0
scalar SingleCell.pgw.ipv4.ip packetDropForwardingDisabled:count 0
scalar SingleCell.pgw.ipv4.ip packetDropForwardingDisabled:sum(packetBytes) 0
scalar SingleCell.pgw.ipv4.ip packetDropNoInterfaceFound:count 0
scalar SingleCell.pgw.ipv4.ip packetDropNoInterfaceFound:sum(packetBytes) 0
scalar SingleCell.pgw.ipv4.ip packetDropNoRouteFound:count 0
scalar SingleCell.pgw.ipv4.ip packetDropNoRouteFound:sum(packetBytes) 0
scalar SingleCell.pgw.ipv4.ip packetDropUndefined:count 0
scalar SingleCell.pgw.ipv4.ip packetDropUndefined:sum(packetBytes) 0
scalar SingleCell.pgw.ipv4.arp arpResolutionFailed:count 0
scalar SingleCell.pgw.ipv4.arp arpResolutionCompleted:count 0
scalar SingleCell.pgw.ipv4.arp arpResolutionInitiated:count 0
scalar SingleCell.pgw.ipv4.arp arpReplySent:count 0
scalar SingleCell.pgw.ipv4.arp arpReplySent:sum(packetBytes) 0
scalar SingleCell.pgw.ipv4.arp arpRequestSent:count 0
scalar SingleCell.pgw.ipv4.arp arpRequestSent:sum(packetBytes) 0
scalar SingleCell.pgw.pppIf.queue queueLength:last 0
scalar SingleCell.pgw.pppIf.queue queueLength:max 0
scalar SingleCell.pgw.pppIf.queue queueLength:timeavg 0
scalar SingleCell.pgw.pppIf.queue queueBitLength:last 0
scalar SingleCell.pgw.pppIf.queue queueBitLength:max 0
scalar SingleCell.pgw.pppIf.queue queueBitLength:timeavg 0
scalar SingleCell.pgw.pppIf.queue outgoingPackets:count 551
scalar SingleCell.pgw.pppIf.queue outgoingPacketLengths:sum 299744
scalar SingleCell.pgw.pppIf.queue incomingPackets:count 551
scalar SingleCell.pgw.pppIf.queue incomingPacketLengths:sum 299744
scalar SingleCell.pgw.pppIf.queue droppedPacketsQueueOverflow:count 0
scalar SingleCell.pgw.pppIf.queue droppedPacketLengthsQueueOverflow:sum 0
scalar SingleCell.pgw.pppIf.ppp transmissionState:timeavg 1.1027352078250963e-05
scalar SingleCell.pgw.pppIf.ppp rxPkOk:count 0
scalar SingleCell.pgw.pppIf.ppp rxPkOk:sum(packetBytes) 0
scalar SingleCell.pgw.pppIf.ppp txPk:count 551
scalar SingleCell.pgw.pppIf.ppp txPk:sum(packetBytes) 41325
scalar SingleCell.pgw.pppIf.ppp rcvdPkFromHl:count 551
scalar SingleCell.pgw.pppIf.ppp rcvdPkFromHl:sum(packetBytes) 37468
scalar SingleCell.pgw.pppIf.ppp passedUpPk:count 0
scalar SingleCell.pgw.pppIf.ppp passedUpPk:sum(packetBytes) 0
scalar SingleCell.pgw.pppIf.ppp packetDropIncorrectlyReceived:count 0
scalar SingleCell.pgw.pppIf.ppp packetDropIncorrectlyReceived:sum(packetBytes) 0
scalar SingleCell.pgw.pppIf.ppp packetDropInterfaceDown:count 0
scalar SingleCell.pgw.pppIf.ppp packetDropInterfaceDown:sum(packetBytes) 0
scalar SingleCell.pgw.pppIf packetDropInterfaceDown:count 0
scalar SingleCell.pgw.pppIf packetDropInterfaceDown:sum(packetBytes) 0
scalar SingleCell.pgw.pppIf packetDropNoCarrier:count 0
scalar SingleCell.pgw.pppIf packetDropNoCarrier:sum(packetBytes) 0
scalar SingleCell.pgw.udp packetReceived:count 551
scalar SingleCell.pgw.udp packetReceived:sum(packetBytes) 46284
scalar SingleCell.pgw.udp packetSent:count 0
scalar SingleCell.pgw.udp packetSent:sum(packetBytes) 0
scalar SingleCell.pgw.udp passedUpPk:count 551
scalar SingleCell.pgw.udp droppedPkWrongPort:count 0
scalar SingleCell.pgw.udp droppedPkBadChecksum:count 0
scalar SingleCell.eNB.cellularNic.pdcp sentPacketToLowerLayer:count 0
scalar SingleCell.eNB.cellularNic.pdcp sentPacketToLowerLayer:sum(packetBytes) 0
scalar SingleCell.eNB.cellularNic.pdcp sentPacketToUpperLayer:count 551
scalar SingleCell.eNB.cellularNic.pdcp sentPacketToUpperLayer:sum(packetBytes) 37468
scalar SingleCell.eNB.cellularNic.pdcp receivedPacketFromLowerLayer:count 551
scalar SingleCell.eNB.cellularNic.pdcp receivedPacketFromLowerLayer:sum(packetBytes) 38019
scalar SingleCell.eNB.cellularNic.pdcp receivedPacketFromUpperLayer:count 0
scalar SingleCell.eNB.cellularNic.pdcp receivedPacketFromUpperLayer:sum(packetBytes) 0
scalar SingleCell.eNB.cellularNic.rlc.tm rlcPacketLossUl:mean -nan
scalar SingleCell.eNB.cellularNic.rlc.tm rlcPacketLossUl:sum 0
scalar SingleCell.eNB.cellularNic.rlc.tm rlcPacketLossDl:mean -nan
scalar SingleCell.eNB.cellularNic.rlc.tm rlcPacketLossDl:sum 0
scalar SingleCell.eNB.cellularNic.rlc.tm sentPacketToLowerLayer:count 0
scalar SingleCell.eNB.cellularNic.rlc.tm sentPacketToLowerLayer:sum(packetBytes) 0
scalar SingleCell.eNB.cellularNic.rlc.tm sentPacketToUpperLayer:count 0
scalar SingleCell.eNB.cellularNic.rlc.tm sentPacketToUpperLayer:sum(packetBytes) 0
scalar SingleCell.eNB.cellularNic.rlc.tm receivedPacketFromLowerLayer:count 0
scalar SingleCell.eNB.cellularNic.rlc.tm receivedPacketFromLowerLayer:sum(packetBytes) 0
scalar SingleCell.eNB.cellularNic.rlc.tm receivedPacketFromUpperLayer:count 0
scalar SingleCell.eNB.cellularNic.rlc.tm receivedPacketFromUpperLayer:sum(packetBytes) 0
scalar SingleCell.eNB.cellularNic.rlc.um rlcPacketLossTotal:mean -nan
scalar SingleCell.eNB.cellularNic.rlc.um rlcCellThroughputUl:mean 78122.311232758468
scalar SingleCell.eNB.cellularNic.rlc.um rlcCellThroughputDl:mean -nan
scalar SingleCell.eNB.cellularNic.rlc.um rlcPduThroughputUl:mean -nan
scalar SingleCell.eNB.cellularNic.rlc.um rlcPduThroughputDl:mean -nan
scalar SingleCell.eNB.cellularNic.rlc.um rlcPduDelayUl:mean -nan
scalar SingleCell.eNB.cellularNic.rlc.um rlcPduDelayDl:mean -nan
scalar SingleCell.eNB.cellularNic.rlc.um rlcThroughputUl:mean -nan
scalar SingleCell.eNB.cellularNic.rlc.um rlcThroughputDl:mean -nan
scalar SingleCell.eNB.cellularNic.rlc.um rlcDelayUl:mean -nan
scalar SingleCell.eNB.cellularNic.rlc.um rlcDelayDl:mean -nan
scalar SingleCell.eNB.cellularNic.rlc.um rlcPduPacketLossUl:mean -nan
scalar SingleCell.eNB.cellularNic.rlc.um rlcPduPacketLossDl:mean -nan
scalar SingleCell.eNB.cellularNic.rlc.um rlcPacketLossUl:mean -nan
scalar SingleCell.eNB.cellularNic.rlc.um rlcPacketLossUl:sum 0
scalar SingleCell.eNB.cellularNic.rlc.um rlcPacketLossDl:mean -nan
scalar SingleCell.eNB.cellularNic.rlc.um rlcPacketLossDl:sum 0
scalar SingleCell.eNB.cellularNic.rlc.um rlcCellPacketLossUl:mean 0
scalar SingleCell.eNB.cellularNic.rlc.um rlcCellPacketLossDl:mean -nan
scalar SingleCell.eNB.cellularNic.rlc.um sentPacketToLowerLayer:count 0
scalar SingleCell.eNB.cellularNic.rlc.um sentPacketToLowerLayer:sum(packetBytes) 0
scalar SingleCell.eNB.cellularNic.rlc.um sentPacketToUpperLayer:count 551
scalar SingleCell.eNB.cellularNic.rlc.um sentPacketToUpperLayer:sum(packetBytes) 38019
scalar SingleCell.eNB.cellularNic.rlc.um receivedPacketFromLowerLayer:count 686
scalar SingleCell.eNB.cellularNic.rlc.um receivedPacketFromLowerLayer:sum(packetBytes) 39326
scalar SingleCell.eNB.cellularNic.rlc.um receivedPacketFromUpperLayer:count 0
scalar SingleCell.eNB.cellularNic.rlc.um receivedPacketFromUpperLayer:sum(packetBytes) 0
scalar SingleCell.eNB.cellularNic.rlc.am rlcPacketLossTotal:mean -nan
scalar SingleCell.eNB.cellularNic.rlc.am rlcCellThroughputUl:mean -nan
scalar SingleCell.eNB.cellularNic.rlc.am rlcCellThroughputDl:mean -nan
scalar SingleCell.eNB.cellularNic.rlc.am rlcPduThroughputUl:mean -nan
scalar SingleCell.eNB.cellularNic.rlc.am rlcPduThroughputDl:mean -nan
scalar SingleCell.eNB.cellularNic.rlc.am rlcPduDelayUl:mean -nan
scalar SingleCell.eNB.cellularNic.rlc.am rlcPduDelayDl:mean -nan
scalar SingleCell.eNB.cellularNic.rlc.am rlcThroughputUl:mean -nan
scalar SingleCell.eNB.cellularNic.rlc.am rlcThroughputDl:mean -nan
scalar SingleCell.eNB.cellularNic.rlc.am rlcDelayUl:mean -nan
scalar SingleCell.eNB.cellularNic.rlc.am rlcDelayDl:mean -nan
scalar SingleCell.eNB.cellularNic.rlc.am rlcPduPacketLossUl:mean -nan
scalar SingleCell.eNB.cellularNic.rlc.am rlcPduPacketLossDl:mean -nan
scalar SingleCell.eNB.cellularNic.rlc.am rlcPacketLossUl:mean -nan
scalar SingleCell.eNB.cellularNic.rlc.am rlcPacketLossDl:mean -nan
scalar SingleCell.eNB.cellularNic.rlc.am rlcCellPacketLossUl:mean -nan
scalar SingleCell.eNB.cellularNic.rlc.am rlcCellPacketLossDl:mean -nan
scalar SingleCell.eNB.cellularNic.mac avgServedBlocksUl:mean 0.23192269243585473
scalar SingleCell.eNB.cellularNic.mac avgServedBlocksDl:mean 0
scalar SingleCell.eNB.cellularNic.mac harqTxAttemptsUl:mean -nan
scalar SingleCell.eNB.cellularNic.mac harqTxAttemptsDl:mean -nan
scalar SingleCell.eNB.cellularNic.mac harqErrorRate_4th_Ul:mean -nan
scalar SingleCell.eNB.cellularNic.mac harqErrorRate_4th_Dl:mean -nan
scalar SingleCell.eNB.cellularNic.mac harqErrorRate_3rd_Ul:mean -nan
scalar SingleCell.eNB.cellularNic.mac harqErrorRate_3rd_Dl:mean -nan
scalar SingleCell.eNB.cellularNic.mac harqErrorRate_2nd_Ul:mean -nan
scalar SingleCell.eNB.cellularNic.mac harqErrorRate_2nd_Dl:mean -nan
scalar SingleCell.eNB.cellularNic.mac harqErrorRate_1st_Ul:mean -nan
scalar SingleCell.eNB.cellularNic.mac harqErrorRate_1st_Dl:mean -nan
scalar SingleCell.eNB.cellularNic.mac harqErrorRateUl:mean -nan
scalar SingleCell.eNB.cellularNic.mac harqErrorRateDl:mean -nan
scalar SingleCell.eNB.cellularNic.mac macCellPacketLossUl:mean 0
scalar SingleCell.eNB.cellularNic.mac macCellPacketLossDl:mean -nan
scalar SingleCell.eNB.cellularNic.mac macPacketLossUl:mean -nan
scalar SingleCell.eNB.cellularNic.mac macPacketLossDl:mean -nan
scalar SingleCell.eNB.cellularNic.mac macThroughputUl:mean -nan
scalar SingleCell.eNB.cellularNic.mac macThroughputDl:mean -nan
scalar SingleCell.eNB.cellularNic.mac macDelayUl:mean -nan
scalar SingleCell.eNB.cellularNic.mac macDelayDl:mean -nan
scalar SingleCell.eNB.cellularNic.mac macCellThroughputUl:mean 86637.448831548332
scalar SingleCell.eNB.cellularNic.mac macCellThroughputDl:mean -nan
scalar SingleCell.eNB.cellularNic.mac sentPacketToLowerLayer:count 1942
scalar SingleCell.eNB.cellularNic.mac sentPacketToLowerLayer:sum(packetBytes) 1942
scalar SingleCell.eNB.cellularNic.mac sentPacketToUpperLayer:count 686
scalar SingleCell.eNB.cellularNic.mac sentPacketToUpperLayer:sum(packetBytes) 39326
scalar SingleCell.eNB.cellularNic.mac receivedPacketFromLowerLayer:count 3752
scalar SingleCell.eNB.cellularNic.mac receivedPacketFromLowerLayer:sum(packetBytes) 44206
scalar SingleCell.eNB.cellularNic.mac receivedPacketFromUpperLayer:count 0
scalar SingleCell.eNB.cellularNic.mac receivedPacketFromUpperLayer:sum(packetBytes) 0
scalar SingleCell.eNB.cellularNic.mac macBufferOverFlowD2D:mean -nan
scalar SingleCell.eNB.cellularNic.mac macBufferOverFlowUl:mean -nan
scalar SingleCell.eNB.cellularNic.mac macBufferOverFlowDl:mean -nan
scalar SingleCell.eNB.cellularNic.channelModel[0] measuredSinrUl:mean -nan
scalar SingleCell.eNB.cellularNic.channelModel[0] measuredSinrDl:mean -nan
scalar SingleCell.eNB.cellularNic.channelModel[0] rcvdSinrD2D:mean -nan
scalar SingleCell.eNB.cellularNic.channelModel[0] rcvdSinrUl:mean -nan
scalar SingleCell.eNB.cellularNic.channelModel[0] rcvdSinrDl:mean -nan
scalar SingleCell.eNB.cellularNic packetDropInterfaceDown:count 0
scalar SingleCell.eNB.cellularNic packetDropInterfaceDown:sum(packetBytes) 0
scalar SingleCell.eNB.cellularNic packetDropNoCarrier:count 0
scalar SingleCell.eNB.cellularNic packetDropNoCarrier:sum(packetBytes) 0
scalar SingleCell.eNB.pppIf.queue queueLength:last 0
scalar SingleCell.eNB.pppIf.queue queueLength:max 3
scalar SingleCell.eNB.pppIf.queue queueLength:timeavg 3.8479999999999995e-07
scalar SingleCell.eNB.pppIf.queue queueBitLength:last 0
scalar SingleCell.eNB.pppIf.queue queueBitLength:max 2496
scalar SingleCell.eNB.pppIf.queue queueBitLength:timeavg 0.00032015360000000004
scalar SingleCell.eNB.pppIf.queue outgoingPackets:count 551
scalar SingleCell.eNB.pppIf.queue outgoingPacketLengths:sum 458432
scalar SingleCell.eNB.pppIf.queue incomingPackets:count 551
scalar SingleCell.eNB.pppIf.queue incomingPacketLengths:sum 458432
scalar SingleCell.eNB.pppIf.queue droppedPacketsQueueOverflow:count 0
scalar SingleCell.eNB.pppIf.queue droppedPacketLengthsQueueOverflow:sum 0
scalar SingleCell.eNB.pppIf.ppp transmissionState:timeavg 1.6320480320213439e-05
scalar SingleCell.eNB.pppIf.ppp rxPkOk:count 0
scalar SingleCell.eNB.pppIf.ppp rxPkOk:sum(packetBytes) 0
scalar SingleCell.eNB.pppIf.ppp txPk:count 551
scalar SingleCell.eNB.pppIf.ppp txPk:sum(packetBytes) 61161
scalar SingleCell.eNB.pppIf.ppp rcvdPkFromHl:count 551
scalar SingleCell.eNB.pppIf.ppp rcvdPkFromHl:sum(packetBytes) 57304
scalar SingleCell.eNB.pppIf.ppp passedUpPk:count 0
scalar SingleCell.eNB.pppIf.ppp passedUpPk:sum(packetBytes) 0
scalar SingleCell.eNB.pppIf.ppp packetDropIncorrectlyReceived:count 0
scalar SingleCell.eNB.pppIf.ppp packetDropIncorrectlyReceived:sum(packetBytes) 0
scalar SingleCell.eNB.pppIf.ppp packetDropInterfaceDown:count 0
scalar SingleCell.eNB.pppIf.ppp packetDropInterfaceDown:sum(packetBytes) 0
scalar SingleCell.eNB.pppIf packetDropInterfaceDown:count 0
scalar SingleCell.eNB.pppIf packetDropInterfaceDown:sum(packetBytes) 0
scalar SingleCell.eNB.pppIf packetDropNoCarrier:count 0
scalar SingleCell.eNB.pppIf packetDropNoCarrier:sum(packetBytes) 0
scalar SingleCell.eNB.pppMEHostIf.queue queueLength:last 0
scalar SingleCell.eNB.pppMEHostIf.queue queueLength:max 0
scalar SingleCell.eNB.pppMEHostIf.queue queueLength:timeavg 0
scalar SingleCell.eNB.pppMEHostIf.queue queueBitLength:last 0
scalar SingleCell.eNB.pppMEHostIf.queue queueBitLength:max 0
scalar SingleCell.eNB.pppMEHostIf.queue queueBitLength:timeavg 0
scalar SingleCell.eNB.pppMEHostIf.queue outgoingPackets:count 0
scalar SingleCell.eNB.pppMEHostIf.queue outgoingPacketLengths:sum 0
scalar SingleCell.eNB.pppMEHostIf.queue incomingPackets:count 0
scalar SingleCell.eNB.pppMEHostIf.queue incomingPacketLengths:sum 0
scalar SingleCell.eNB.pppMEHostIf.queue droppedPacketsQueueOverflow:count 0
scalar SingleCell.eNB.pppMEHostIf.queue droppedPacketLengthsQueueOverflow:sum 0
scalar SingleCell.eNB.pppMEHostIf.ppp transmissionState:timeavg -nan
scalar SingleCell.eNB.pppMEHostIf.ppp rxPkOk:count 0
scalar SingleCell.eNB.pppMEHostIf.ppp rxPkOk:sum(packetBytes) 0
scalar SingleCell.eNB.pppMEHostIf.ppp txPk:count 0
scalar SingleCell.eNB.pppMEHostIf.ppp txPk:sum(packetBytes) 0
scalar SingleCell.eNB.pppMEHostIf.ppp rcvdPkFromHl:count 0
scalar SingleCell.eNB.pppMEHostIf.ppp rcvdPkFromHl:sum(packetBytes) 0
scalar SingleCell.eNB.pppMEHostIf.ppp passedUpPk:count 0
scalar SingleCell.eNB.pppMEHostIf.ppp passedUpPk:sum(packetBytes) 0
scalar SingleCell.eNB.pppMEHostIf.ppp packetDropIncorrectlyReceived:count 0
scalar SingleCell.eNB.pppMEHostIf.ppp packetDropIncorrectlyReceived:sum(packetBytes) 0
scalar SingleCell.eNB.pppMEHostIf.ppp packetDropInterfaceDown:count 0
scalar SingleCell.eNB.pppMEHostIf.ppp packetDropInterfaceDown:sum(packetBytes) 0
scalar SingleCell.eNB.pppMEHostIf packetDropInterfaceDown:count 0
scalar SingleCell.eNB.pppMEHostIf packetDropInterfaceDown:sum(packetBytes) 0
scalar SingleCell.eNB.pppMEHostIf packetDropNoCarrier:count 0
scalar SingleCell.eNB.pppMEHostIf packetDropNoCarrier:sum(packetBytes) 0
scalar SingleCell.eNB.ipv4.ip packetDropAddressResolutionFailed:count 0
scalar SingleCell.eNB.ipv4.ip packetDropAddressResolutionFailed:sum(packetBytes) 0
scalar SingleCell.eNB.ipv4.ip packetDropHopLimitReached:count 0
scalar SingleCell.eNB.ipv4.ip packetDropHopLimitReached:sum(packetBytes) 0
scalar SingleCell.eNB.ipv4.ip packetDropForwardingDisabled:count 0
scalar SingleCell.eNB.ipv4.ip packetDropForwardingDisabled:sum(packetBytes) 0
scalar SingleCell.eNB.ipv4.ip packetDropNoInterfaceFound:count 0
scalar SingleCell.eNB.ipv4.ip packetDropNoInterfaceFound:sum(packetBytes) 0
scalar SingleCell.eNB.ipv4.ip packetDropNoRouteFound:count 0
scalar SingleCell.eNB.ipv4.ip packetDropNoRouteFound:sum(packetBytes) 0
scalar SingleCell.eNB.ipv4.ip packetDropUndefined:count 0
scalar SingleCell.eNB.ipv4.ip packetDropUndefined:sum(packetBytes) 0
scalar SingleCell.eNB.ipv4.arp arpResolutionFailed:count 0
scalar SingleCell.eNB.ipv4.arp arpResolutionCompleted:count 0
scalar SingleCell.eNB.ipv4.arp arpResolutionInitiated:count 0
scalar SingleCell.eNB.ipv4.arp arpReplySent:count 0
scalar SingleCell.eNB.ipv4.arp arpReplySent:sum(packetBytes) 0
scalar SingleCell.eNB.ipv4.arp arpRequestSent:count 0
scalar SingleCell.eNB.ipv4.arp arpRequestSent:sum(packetBytes) 0
scalar SingleCell.eNB.udp packetReceived:count 0
scalar SingleCell.eNB.udp packetReceived:sum(packetBytes) 0
scalar SingleCell.eNB.udp packetSent:count 551
scalar SingleCell.eNB.udp packetSent:sum(packetBytes) 46284
scalar SingleCell.eNB.udp passedUpPk:count 0
scalar SingleCell.eNB.udp droppedPkWrongPort:count 0
scalar SingleCell.eNB.udp droppedPkBadChecksum:count 0
scalar SingleCell.ue[0].lo[0].lo rcvdPkFromHl:count 0
scalar SingleCell.ue[0].lo[0].lo rcvdPkFromHl:sum(packetBytes) 0
scalar SingleCell.ue[0].lo[0].lo passedUpPk:count 0
scalar SingleCell.ue[0].lo[0].lo passedUpPk:sum(packetBytes) 0
scalar SingleCell.ue[0].lo[0] packetDropInterfaceDown:count 0
scalar SingleCell.ue[0].lo[0] packetDropInterfaceDown:sum(packetBytes) 0
scalar SingleCell.ue[0].lo[0] packetDropNoCarrier:count 0
scalar SingleCell.ue[0].lo[0] packetDropNoCarrier:sum(packetBytes) 0
scalar SingleCell.ue[0].cellularNic.pdcp sentPacketToLowerLayer:count 140
scalar SingleCell.ue[0].cellularNic.pdcp sentPacketToLowerLayer:sum(packetBytes) 9660
scalar SingleCell.ue[0].cellularNic.pdcp sentPacketToUpperLayer:count 0
scalar SingleCell.ue[0].cellularNic.pdcp sentPacketToUpperLayer:sum(packetBytes) 0
scalar SingleCell.ue[0].cellularNic.pdcp receivedPacketFromLowerLayer:count 0
scalar SingleCell.ue[0].cellularNic.pdcp receivedPacketFromLowerLayer:sum(packetBytes) 0
scalar SingleCell.ue[0].cellularNic.pdcp receivedPacketFromUpperLayer:count 140
scalar SingleCell.ue[0].cellularNic.pdcp receivedPacketFromUpperLayer:sum(packetBytes) 9520
scalar SingleCell.ue[0].cellularNic.rlc.tm rlcPacketLossUl:mean -nan
scalar SingleCell.ue[0].cellularNic.rlc.tm rlcPacketLossUl:sum 0
scalar SingleCell.ue[0].cellularNic.rlc.tm rlcPacketLossDl:mean -nan
scalar SingleCell.ue[0].cellularNic.rlc.tm rlcPacketLossDl:sum 0
scalar SingleCell.ue[0].cellularNic.rlc.tm sentPacketToLowerLayer:count 0
scalar SingleCell.ue[0].cellularNic.rlc.tm sentPacketToLowerLayer:sum(packetBytes) 0
scalar SingleCell.ue[0].cellularNic.rlc.tm sentPacketToUpperLayer:count 0
scalar SingleCell.ue[0].cellularNic.rlc.tm sentPacketToUpperLayer:sum(packetBytes) 0
scalar SingleCell.ue[0].cellularNic.rlc.tm receivedPacketFromLowerLayer:count 0
scalar SingleCell.ue[0].cellularNic.rlc.tm receivedPacketFromLowerLayer:sum(packetBytes) 0
scalar SingleCell.ue[0].cellularNic.rlc.tm receivedPacketFromUpperLayer:count 0
scalar SingleCell.ue[0].cellularNic.rlc.tm receivedPacketFromUpperLayer:sum(packetBytes) 0
scalar SingleCell.ue[0].cellularNic.rlc.um rlcPacketLossTotal:mean 0
scalar SingleCell.ue[0].cellularNic.rlc.um rlcCellThroughputUl:mean -nan
scalar SingleCell.ue[0].cellularNic.rlc.um rlcCellThroughputDl:mean -nan
scalar SingleCell.ue[0].cellularNic.rlc.um rlcPduThroughputUl:mean 0
scalar SingleCell.ue[0].cellularNic.rlc.um rlcPduThroughputDl:mean -nan
scalar SingleCell.ue[0].cellularNic.rlc.um rlcPduDelayUl:mean 0.0042877697841726646
scalar SingleCell.ue[0].cellularNic.rlc.um rlcPduDelayDl:mean -nan
scalar SingleCell.ue[0].cellularNic.rlc.um rlcThroughputUl:mean 7734.6535788873234
scalar SingleCell.ue[0].cellularNic.rlc.um rlcThroughputDl:mean -nan
scalar SingleCell.ue[0].cellularNic.rlc.um rlcDelayUl:mean 0.0088419324972805625
scalar SingleCell.ue[0].cellularNic.rlc.um rlcDelayDl:mean -nan
scalar SingleCell.ue[0].cellularNic.rlc.um rlcPduPacketLossUl:mean 0
scalar SingleCell.ue[0].cellularNic.rlc.um rlcPduPacketLossDl:mean -nan
scalar SingleCell.ue[0].cellularNic.rlc.um rlcPacketLossUl:mean 0
scalar SingleCell.ue[0].cellularNic.rlc.um rlcPacketLossUl:sum 0
scalar SingleCell.ue[0].cellularNic.rlc.um rlcPacketLossDl:mean -nan
scalar SingleCell.ue[0].cellularNic.rlc.um rlcPacketLossDl:sum 0
scalar SingleCell.ue[0].cellularNic.rlc.um rlcCellPacketLossUl:mean -nan
scalar SingleCell.ue[0].cellularNic.rlc.um rlcCellPacketLossDl:mean -nan
scalar SingleCell.ue[0].cellularNic.rlc.um sentPacketToLowerLayer:count 139
scalar SingleCell.ue[0].cellularNic.rlc.um sentPacketToLowerLayer:sum(packetBytes) 9869
scalar SingleCell.ue[0].cellularNic.rlc.um sentPacketToUpperLayer:count 0
scalar SingleCell.ue[0].cellularNic.rlc.um sentPacketToUpperLayer:sum(packetBytes) 0
scalar SingleCell.ue[0].cellularNic.rlc.um receivedPacketFromLowerLayer:count 0
scalar SingleCell.ue[0].cellularNic.rlc.um receivedPacketFromLowerLayer:sum(packetBytes) 0
scalar SingleCell.ue[0].cellularNic.rlc.um receivedPacketFromUpperLayer:count 140
scalar SingleCell.ue[0].cellularNic.rlc.um receivedPacketFromUpperLayer:sum(packetBytes) 9660
scalar SingleCell.ue[0].cellularNic.rlc.am rlcPacketLossTotal:mean -nan
scalar SingleCell.ue[0].cellularNic.rlc.am rlcCellThroughputUl:mean -nan
scalar SingleCell.ue[0].cellularNic.rlc.am rlcCellThroughputDl:mean -nan
scalar SingleCell.ue[0].cellularNic.rlc.am rlcPduThroughputUl:mean -nan
scalar SingleCell.ue[0].cellularNic.rlc.am rlcPduThroughputDl:mean -nan
scalar SingleCell.ue[0].cellularNic.rlc.am rlcPduDelayUl:mean -nan
scalar SingleCell.ue[0].cellularNic.rlc.am rlcPduDelayDl:mean -nan
scalar SingleCell.ue[0].cellularNic.rlc.am rlcThroughputUl:mean -nan
scalar SingleCell.ue[0].cellularNic.rlc.am rlcThroughputDl:mean -nan
scalar SingleCell.ue[0].cellularNic.rlc.am rlcDelayUl:mean -nan
scalar SingleCell.ue[0].cellularNic.rlc.am rlcDelayDl:mean -nan
scalar SingleCell.ue[0].cellularNic.rlc.am rlcPduPacketLossUl:mean -nan
scalar SingleCell.ue[0].cellularNic.rlc.am rlcPduPacketLossDl:mean -nan
scalar SingleCell.ue[0].cellularNic.rlc.am rlcPacketLossUl:mean -nan
scalar SingleCell.ue[0].cellularNic.rlc.am rlcPacketLossDl:mean -nan
scalar SingleCell.ue[0].cellularNic.rlc.am rlcCellPacketLossUl:mean -nan
scalar SingleCell.ue[0].cellularNic.rlc.am rlcCellPacketLossDl:mean -nan
scalar SingleCell.ue[0].cellularNic.mac harqTxAttemptsUl:mean 1.0071942446043165
scalar SingleCell.ue[0].cellularNic.mac harqTxAttemptsDl:mean -nan
scalar SingleCell.ue[0].cellularNic.mac harqErrorRate_4th_Ul:mean -nan
scalar SingleCell.ue[0].cellularNic.mac harqErrorRate_4th_Dl:mean -nan
scalar SingleCell.ue[0].cellularNic.mac harqErrorRate_3rd_Ul:mean -nan
scalar SingleCell.ue[0].cellularNic.mac harqErrorRate_3rd_Dl:mean -nan
scalar SingleCell.ue[0].cellularNic.mac harqErrorRate_2nd_Ul:mean 0
scalar SingleCell.ue[0].cellularNic.mac harqErrorRate_2nd_Dl:mean -nan
scalar SingleCell.ue[0].cellularNic.mac harqErrorRate_1st_Ul:mean 0.0071942446043165471
scalar SingleCell.ue[0].cellularNic.mac harqErrorRate_1st_Dl:mean -nan
scalar SingleCell.ue[0].cellularNic.mac harqErrorRateUl:mean 0.0071428571428571426
scalar SingleCell.ue[0].cellularNic.mac harqErrorRateDl:mean -nan
scalar SingleCell.ue[0].cellularNic.mac macCellPacketLossUl:mean -nan
scalar SingleCell.ue[0].cellularNic.mac macCellPacketLossDl:mean -nan
scalar SingleCell.ue[0].cellularNic.mac macPacketLossUl:mean 0
scalar SingleCell.ue[0].cellularNic.mac macPacketLossDl:mean -nan
scalar SingleCell.ue[0].cellularNic.mac macThroughputUl:mean 8191.5887968866091
scalar SingleCell.ue[0].cellularNic.mac macThroughputDl:mean -nan
scalar SingleCell.ue[0].cellularNic.mac macDelayUl:mean 0.0042877697841726646
scalar SingleCell.ue[0].cellularNic.mac macDelayDl:mean -nan
scalar SingleCell.ue[0].cellularNic.mac macCellThroughputUl:mean -nan
scalar SingleCell.ue[0].cellularNic.mac macCellThroughputDl:mean -nan
scalar SingleCell.ue[0].cellularNic.mac sentPacketToLowerLayer:count 281
scalar SingleCell.ue[0].cellularNic.mac sentPacketToLowerLayer:sum(packetBytes) 10361
scalar SingleCell.ue[0].cellularNic.mac sentPacketToUpperLayer:count 139
scalar SingleCell.ue[0].cellularNic.mac sentPacketToUpperLayer:sum(packetBytes) 139
scalar SingleCell.ue[0].cellularNic.mac receivedPacketFromLowerLayer:count 421
scalar SingleCell.ue[0].cellularNic.mac receivedPacketFromLowerLayer:sum(packetBytes) 421
scalar SingleCell.ue[0].cellularNic.mac receivedPacketFromUpperLayer:count 279
scalar SingleCell.ue[0].cellularNic.mac receivedPacketFromUpperLayer:sum(packetBytes) 19809
scalar SingleCell.ue[0].cellularNic.mac macBufferOverFlowD2D:mean -nan
scalar SingleCell.ue[0].cellularNic.mac macBufferOverFlowUl:mean -nan
scalar SingleCell.ue[0].cellularNic.mac macBufferOverFlowDl:mean -nan
scalar SingleCell.ue[0].cellularNic.phy distance:mean 90.547853697077144
scalar SingleCell.ue[0].cellularNic.phy averageCqiUl:mean 14.357142857142858
scalar SingleCell.ue[0].cellularNic.phy averageCqiUl:count 140
scalar SingleCell.ue[0].cellularNic.phy averageCqiDl:mean -nan
scalar SingleCell.ue[0].cellularNic.phy averageCqiDl:count 0
scalar SingleCell.ue[0].cellularNic.channelModel[0] measuredSinrUl:mean 33.564725257029735
scalar SingleCell.ue[0].cellularNic.channelModel[0] measuredSinrDl:mean 57.399638606941778
scalar SingleCell.ue[0].cellularNic.channelModel[0] rcvdSinrD2D:mean -nan
scalar SingleCell.ue[0].cellularNic.channelModel[0] rcvdSinrUl:mean 35.64671036947972
scalar SingleCell.ue[0].cellularNic.channelModel[0] rcvdSinrDl:mean -nan
scalar SingleCell.ue[0].cellularNic packetDropInterfaceDown:count 0
scalar SingleCell.ue[0].cellularNic packetDropInterfaceDown:sum(packetBytes) 0
scalar SingleCell.ue[0].cellularNic packetDropNoCarrier:count 0
scalar SingleCell.ue[0].cellularNic packetDropNoCarrier:sum(packetBytes) 0
scalar SingleCell.ue[0].encap pauseSent:count 0
scalar SingleCell.ue[0].encap pauseSent:sum 0
scalar SingleCell.ue[0].encap decapPk:count 0
scalar SingleCell.ue[0].encap decapPk:sum(packetBytes) 0
scalar SingleCell.ue[0].encap encapPk:count 0
scalar SingleCell.ue[0].encap encapPk:sum(packetBytes) 0
scalar SingleCell.ue[0].ipv4.ip packetDropAddressResolutionFailed:count 0
scalar SingleCell.ue[0].ipv4.ip packetDropAddressResolutionFailed:sum(packetBytes) 0
scalar SingleCell.ue[0].ipv4.ip packetDropHopLimitReached:count 0
scalar SingleCell.ue[0].ipv4.ip packetDropHopLimitReached:sum(packetBytes) 0
scalar SingleCell.ue[0].ipv4.ip packetDropForwardingDisabled:count 0
scalar SingleCell.ue[0].ipv4.ip packetDropForwardingDisabled:sum(packetBytes) 0
scalar SingleCell.ue[0].ipv4.ip packetDropNoInterfaceFound:count 0
scalar SingleCell.ue[0].ipv4.ip packetDropNoInterfaceFound:sum(packetBytes) 0
scalar SingleCell.ue[0].ipv4.ip packetDropNoRouteFound:count 0
scalar SingleCell.ue[0].ipv4.ip packetDropNoRouteFound:sum(packetBytes) 0
scalar SingleCell.ue[0].ipv4.ip packetDropUndefined:count 0
scalar SingleCell.ue[0].ipv4.ip packetDropUndefined:sum(packetBytes) 0
scalar SingleCell.ue[0].ipv4.arp arpResolutionFailed:count 0
scalar SingleCell.ue[0].ipv4.arp arpResolutionCompleted:count 0
scalar SingleCell.ue[0].ipv4.arp arpResolutionInitiated:count 0
scalar SingleCell.ue[0].ipv4.arp arpReplySent:count 0
scalar SingleCell.ue[0].ipv4.arp arpReplySent:sum(packetBytes) 0
scalar SingleCell.ue[0].ipv4.arp arpRequestSent:count 0
scalar SingleCell.ue[0].ipv4.arp arpRequestSent:sum(packetBytes) 0
scalar SingleCell.ue[0].udp packetReceived:count 0
scalar SingleCell.ue[0].udp packetReceived:sum(packetBytes) 0
scalar SingleCell.ue[0].udp packetSent:count 140
scalar SingleCell.ue[0].udp packetSent:sum(packetBytes) 6720
scalar SingleCell.ue[0].udp passedUpPk:count 0
scalar SingleCell.ue[0].udp droppedPkWrongPort:count 0
scalar SingleCell.ue[0].udp droppedPkBadChecksum:count 0
scalar SingleCell.ue[0].app[0] voIPGeneratedThroughput:mean 4524.5874616550127
scalar SingleCell.ue[1].lo[0].lo rcvdPkFromHl:count 0
scalar SingleCell.ue[1].lo[0].lo rcvdPkFromHl:sum(packetBytes) 0
scalar SingleCell.ue[1].lo[0].lo passedUpPk:count 0
scalar SingleCell.ue[1].lo[0].lo passedUpPk:sum(packetBytes) 0
scalar SingleCell.ue[1].lo[0] packetDropInterfaceDown:count 0
scalar SingleCell.ue[1].lo[0] packetDropInterfaceDown:sum(packetBytes) 0
scalar SingleCell.ue[1].lo[0] packetDropNoCarrier:count 0
scalar SingleCell.ue[1].lo[0] packetDropNoCarrier:sum(packetBytes) 0
scalar SingleCell.ue[1].cellularNic.pdcp sentPacketToLowerLayer:count 105
scalar SingleCell.ue[1].cellularNic.pdcp sentPacketToLowerLayer:sum(packetBytes) 7245
scalar SingleCell.ue[1].cellularNic.pdcp sentPacketToUpperLayer:count 0
scalar SingleCell.ue[1].cellularNic.pdcp sentPacketToUpperLayer:sum(packetBytes) 0
scalar SingleCell.ue[1].cellularNic.pdcp receivedPacketFromLowerLayer:count 0
scalar SingleCell.ue[1].cellularNic.pdcp receivedPacketFromLowerLayer:sum(packetBytes) 0
scalar SingleCell.ue[1].cellularNic.pdcp receivedPacketFromUpperLayer:count 105
scalar SingleCell.ue[1].cellularNic.pdcp receivedPacketFromUpperLayer:sum(packetBytes) 7140
scalar SingleCell.ue[1].cellularNic.rlc.tm rlcPacketLossUl:mean -nan
scalar SingleCell.ue[1].cellularNic.rlc.tm rlcPacketLossUl:sum 0
scalar SingleCell.ue[1].cellularNic.rlc.tm rlcPacketLossDl:mean -nan
scalar SingleCell.ue[1].cellularNic.rlc.tm rlcPacketLossDl:sum 0
scalar SingleCell.ue[1].cellularNic.rlc.tm sentPacketToLowerLayer:count 0
scalar SingleCell.ue[1].cellularNic.rlc.tm sentPacketToLowerLayer:sum(packetBytes) 0
scalar SingleCell.ue[1].cellularNic.rlc.tm sentPacketToUpperLayer:count 0
scalar SingleCell.ue[1].cellularNic.rlc.tm sentPacketToUpperLayer:sum(packetBytes) 0
scalar SingleCell.ue[1].cellularNic.rlc.tm receivedPacketFromLowerLayer:count 0
scalar SingleCell.ue[1].cellularNic.rlc.tm receivedPacketFromLowerLayer:sum(packetBytes) 0
scalar SingleCell.ue[1].cellularNic.rlc.tm receivedPacketFromUpperLayer:count 0
scalar SingleCell.ue[1].cellularNic.rlc.tm receivedPacketFromUpperLayer:sum(packetBytes) 0
scalar SingleCell.ue[1].cellularNic.rlc.um rlcPacketLossTotal:mean 0
scalar SingleCell.ue[1].cellularNic.rlc.um rlcCellThroughputUl:mean -nan
scalar SingleCell.ue[1].cellularNic.rlc.um rlcCellThroughputDl:mean -nan
scalar SingleCell.ue[1].cellularNic.rlc.um rlcPduThroughputUl:mean 0
scalar SingleCell.ue[1].cellularNic.rlc.um rlcPduThroughputDl:mean -nan
scalar SingleCell.ue[1].cellularNic.rlc.um rlcPduDelayUl:mean 0.0045063291139240541
scalar SingleCell.ue[1].cellularNic.rlc.um rlcPduDelayDl:mean -nan
scalar SingleCell.ue[1].cellularNic.rlc.um rlcThroughputUl:mean 29214.185677554393
scalar SingleCell.ue[1].cellularNic.rlc.um rlcThroughputDl:mean -nan
scalar SingleCell.ue[1].cellularNic.rlc.um rlcDelayUl:mean 0.01284273395869813
scalar SingleCell.ue[1].cellularNic.rlc.um rlcDelayDl:mean -nan
scalar SingleCell.ue[1].cellularNic.rlc.um rlcPduPacketLossUl:mean 0
scalar SingleCell.ue[1].cellularNic.rlc.um rlcPduPacketLossDl:mean -nan
scalar SingleCell.ue[1].cellularNic.rlc.um rlcPacketLossUl:mean 0
scalar SingleCell.ue[1].cellularNic.rlc.um rlcPacketLossUl:sum 0
scalar SingleCell.ue[1].cellularNic.rlc.um rlcPacketLossDl:mean -nan
scalar SingleCell.ue[1].cellularNic.rlc.um rlcPacketLossDl:sum 0
scalar SingleCell.ue[1].cellularNic.rlc.um rlcCellPacketLossUl:mean -nan
scalar SingleCell.ue[1].cellularNic.rlc.um rlcCellPacketLossDl:mean -nan
scalar SingleCell.ue[1].cellularNic.rlc.um sentPacketToLowerLayer:count 157
scalar SingleCell.ue[1].cellularNic.rlc.um sentPacketToLowerLayer:sum(packetBytes) 7559
scalar SingleCell.ue[1].cellularNic.rlc.um sentPacketToUpperLayer:count 0
scalar SingleCell.ue[1].cellularNic.rlc.um sentPacketToUpperLayer:sum(packetBytes) 0
scalar SingleCell.ue[1].cellularNic.rlc.um receivedPacketFromLowerLayer:count 0
scalar SingleCell.ue[1].cellularNic.rlc.um receivedPacketFromLowerLayer:sum(packetBytes) 0
scalar SingleCell.ue[1].cellularNic.rlc.um receivedPacketFromUpperLayer:count 105
scalar SingleCell.ue[1].cellularNic.rlc.um receivedPacketFromUpperLayer:sum(packetBytes) 7245
scalar SingleCell.ue[1].cellularNic.rlc.am rlcPacketLossTotal:mean -nan
scalar SingleCell.ue[1].cellularNic.rlc.am rlcCellThroughputUl:mean -nan
scalar SingleCell.ue[1].cellularNic.rlc.am rlcCellThroughputDl:mean -nan
scalar SingleCell.ue[1].cellularNic.rlc.am rlcPduThroughputUl:mean -nan
scalar SingleCell.ue[1].cellularNic.rlc.am rlcPduThroughputDl:mean -nan
scalar SingleCell.ue[1].cellularNic.rlc.am rlcPduDelayUl:mean -nan
scalar SingleCell.ue[1].cellularNic.rlc.am rlcPduDelayDl:mean -nan
scalar SingleCell.ue[1].cellularNic.rlc.am rlcThroughputUl:mean -nan
scalar SingleCell.ue[1].cellularNic.rlc.am rlcThroughputDl:mean -nan
scalar SingleCell.ue[1].cellularNic.rlc.am rlcDelayUl:mean -nan
scalar SingleCell.ue[1].cellularNic.rlc.am rlcDelayDl:mean -nan
scalar SingleCell.ue[1].cellularNic.rlc.am rlcPduPacketLossUl:mean -nan
scalar SingleCell.ue[1].cellularNic.rlc.am rlcPduPacketLossDl:mean -nan
scalar SingleCell.ue[1].cellularNic.rlc.am rlcPacketLossUl:mean -nan
scalar SingleCell.ue[1].cellularNic.rlc.am rlcPacketLossDl:mean -nan
scalar SingleCell.ue[1].cellularNic.rlc.am rlcCellPacketLossUl:mean -nan
scalar SingleCell.ue[1].cellularNic.rlc.am rlcCellPacketLossDl:mean -nan
scalar SingleCell.ue[1].cellularNic.mac harqTxAttemptsUl:mean 1.0126582278481013
scalar SingleCell.ue[1].cellularNic.mac harqTxAttemptsDl:mean -nan
scalar SingleCell.ue[1].cellularNic.mac harqErrorRate_4th_Ul:mean -nan
scalar SingleCell.ue[1].cellularNic.mac harqErrorRate_4th_Dl:mean -nan
scalar SingleCell.ue[1].cellularNic.mac harqErrorRate_3rd_Ul:mean -nan
scalar SingleCell.ue[1].cellularNic.mac harqErrorRate_3rd_Dl:mean -nan
scalar SingleCell.ue[1].cellularNic.mac harqErrorRate_2nd_Ul:mean 0
scalar SingleCell.ue[1].cellularNic.mac harqErrorRate_2nd_Dl:mean -nan
scalar SingleCell.ue[1].cellularNic.mac harqErrorRate_1st_Ul:mean 0.012658227848101266
scalar SingleCell.ue[1].cellularNic.mac harqErrorRate_1st_Dl:mean -nan
scalar SingleCell.ue[1].cellularNic.mac harqErrorRateUl:mean 0.012500000000000001
scalar SingleCell.ue[1].cellularNic.mac harqErrorRateDl:mean -nan
scalar SingleCell.ue[1].cellularNic.mac macCellPacketLossUl:mean -nan
scalar SingleCell.ue[1].cellularNic.mac macCellPacketLossDl:mean -nan
scalar SingleCell.ue[1].cellularNic.mac macPacketLossUl:mean 0
scalar SingleCell.ue[1].cellularNic.mac macPacketLossDl:mean -nan
scalar SingleCell.ue[1].cellularNic.mac macThroughputUl:mean 29282.231542648831
scalar SingleCell.ue[1].cellularNic.mac macThroughputDl:mean -nan
scalar SingleCell.ue[1].cellularNic.mac macDelayUl:mean 0.0045063291139240541
scalar SingleCell.ue[1].cellularNic.mac macDelayDl:mean -nan
scalar SingleCell.ue[1].cellularNic.mac macCellThroughputUl:mean -nan
scalar SingleCell.ue[1].cellularNic.mac macCellThroughputDl:mean -nan
scalar SingleCell.ue[1].cellularNic.mac sentPacketToLowerLayer:count 266
scalar SingleCell.ue[1].cellularNic.mac sentPacketToLowerLayer:sum(packetBytes) 8126
scalar SingleCell.ue[1].cellularNic.mac sentPacketToUpperLayer:count 157
scalar SingleCell.ue[1].cellularNic.mac sentPacketToUpperLayer:sum(packetBytes) 157
scalar SingleCell.ue[1].cellularNic.mac receivedPacketFromLowerLayer:count 426
scalar SingleCell.ue[1].cellularNic.mac receivedPacketFromLowerLayer:sum(packetBytes) 426
scalar SingleCell.ue[1].cellularNic.mac receivedPacketFromUpperLayer:count 262
scalar SingleCell.ue[1].cellularNic.mac receivedPacketFromUpperLayer:sum(packetBytes) 15014
scalar SingleCell.ue[1].cellularNic.mac macBufferOverFlowD2D:mean -nan
scalar SingleCell.ue[1].cellularNic.mac macBufferOverFlowUl:mean -nan
scalar SingleCell.ue[1].cellularNic.mac macBufferOverFlowDl:mean -nan
scalar SingleCell.ue[1].cellularNic.phy distance:mean 295.73696556501721
scalar SingleCell.ue[1].cellularNic.phy averageCqiUl:mean 12.289308176100629
scalar SingleCell.ue[1].cellularNic.phy averageCqiUl:count 159
scalar SingleCell.ue[1].cellularNic.phy averageCqiDl:mean -nan
scalar SingleCell.ue[1].cellularNic.phy averageCqiDl:count 0
scalar SingleCell.ue[1].cellularNic.channelModel[0] measuredSinrUl:mean 25.192305303915628
scalar SingleCell.ue[1].cellularNic.channelModel[0] measuredSinrDl:mean 49.146068071114279
scalar SingleCell.ue[1].cellularNic.channelModel[0] rcvdSinrD2D:mean -nan
scalar SingleCell.ue[1].cellularNic.channelModel[0] rcvdSinrUl:mean 25.475009971556389
scalar SingleCell.ue[1].cellularNic.channelModel[0] rcvdSinrDl:mean -nan
scalar SingleCell.ue[1].cellularNic packetDropInterfaceDown:count 0
scalar SingleCell.ue[1].cellularNic packetDropInterfaceDown:sum(packetBytes) 0
scalar SingleCell.ue[1].cellularNic packetDropNoCarrier:count 0
scalar SingleCell.ue[1].cellularNic packetDropNoCarrier:sum(packetBytes) 0
scalar SingleCell.ue[1].encap pauseSent:count 0
scalar SingleCell.ue[1].encap pauseSent:sum 0
scalar SingleCell.ue[1].encap decapPk:count 0
scalar SingleCell.ue[1].encap decapPk:sum(packetBytes) 0
scalar SingleCell.ue[1].encap encapPk:count 0
scalar SingleCell.ue[1].encap encapPk:sum(packetBytes) 0
scalar SingleCell.ue[1].ipv4.ip packetDropAddressResolutionFailed:count 0
scalar SingleCell.ue[1].ipv4.ip packetDropAddressResolutionFailed:sum(packetBytes) 0
scalar SingleCell.ue[1].ipv4.ip packetDropHopLimitReached:count 0
scalar SingleCell.ue[1].ipv4.ip packetDropHopLimitReached:sum(packetBytes) 0
scalar SingleCell.ue[1].ipv4.ip packetDropForwardingDisabled:count 0
scalar SingleCell.ue[1].ipv4.ip packetDropForwardingDisabled:sum(packetBytes) 0
scalar SingleCell.ue[1].ipv4.ip packetDropNoInterfaceFound:count 0
scalar SingleCell.ue[1].ipv4.ip packetDropNoInterfaceFound:sum(packetBytes) 0
scalar SingleCell.ue[1].ipv4.ip packetDropNoRouteFound:count 0
scalar SingleCell.ue[1].ipv4.ip packetDropNoRouteFound:sum(packetBytes) 0
scalar SingleCell.ue[1].ipv4.ip packetDropUndefined:count 0
scalar SingleCell.ue[1].ipv4.ip packetDropUndefined:sum(packetBytes) 0
scalar SingleCell.ue[1].ipv4.arp arpResolutionFailed:count 0
scalar SingleCell.ue[1].ipv4.arp arpResolutionCompleted:count 0
scalar SingleCell.ue[1].ipv4.arp arpResolutionInitiated:count 0
scalar SingleCell.ue[1].ipv4.arp arpReplySent:count 0
scalar SingleCell.ue[1].ipv4.arp arpReplySent:sum(packetBytes) 0
scalar SingleCell.ue[1].ipv4.arp arpRequestSent:count 0
scalar SingleCell.ue[1].ipv4.arp arpRequestSent:sum(packetBytes) 0
scalar SingleCell.ue[1].udp packetReceived:count 0
scalar SingleCell.ue[1].udp packetReceived:sum(packetBytes) 0
scalar SingleCell.ue[1].udp packetSent:count 105
scalar SingleCell.ue[1].udp packetSent:sum(packetBytes) 5040
scalar SingleCell.ue[1].udp passedUpPk:count 0
scalar SingleCell.ue[1].udp droppedPkWrongPort:count 0
scalar SingleCell.ue[1].udp droppedPkBadChecksum:count 0
scalar SingleCell.ue[1].app[0] voIPGeneratedThroughput:mean 9224.3914772041171
scalar SingleCell.ue[2].lo[0].lo rcvdPkFromHl:count 0
scalar SingleCell.ue[2].lo[0].lo rcvdPkFromHl:sum(packetBytes) 0
scalar SingleCell.ue[2].lo[0].lo passedUpPk:count 0
scalar SingleCell.ue[2].lo[0].lo passedUpPk:sum(packetBytes) 0
scalar SingleCell.ue[2].lo[0] packetDropInterfaceDown:count 0
scalar SingleCell.ue[2].lo[0] packetDropInterfaceDown:sum(packetBytes) 0
scalar SingleCell.ue[2].lo[0] packetDropNoCarrier:count 0
scalar SingleCell.ue[2].lo[0] packetDropNoCarrier:sum(packetBytes) 0
scalar SingleCell.ue[2].cellularNic.pdcp sentPacketToLowerLayer:count 84
scalar SingleCell.ue[2].cellularNic.pdcp sentPacketToLowerLayer:sum(packetBytes) 5796
scalar SingleCell.ue[2].cellularNic.pdcp sentPacketToUpperLayer:count 0
scalar SingleCell.ue[2].cellularNic.pdcp sentPacketToUpperLayer:sum(packetBytes) 0
scalar SingleCell.ue[2].cellularNic.pdcp receivedPacketFromLowerLayer:count 0
scalar SingleCell.ue[2].cellularNic.pdcp receivedPacketFromLowerLayer:sum(packetBytes) 0
scalar SingleCell.ue[2].cellularNic.pdcp receivedPacketFromUpperLayer:count 84
scalar SingleCell.ue[2].cellularNic.pdcp receivedPacketFromUpperLayer:sum(packetBytes) 5712
scalar SingleCell.ue[2].cellularNic.rlc.tm rlcPacketLossUl:mean -nan
scalar SingleCell.ue[2].cellularNic.rlc.tm rlcPacketLossUl:sum 0
scalar SingleCell.ue[2].cellularNic.rlc.tm rlcPacketLossDl:mean -nan
scalar SingleCell.ue[2].cellularNic.rlc.tm rlcPacketLossDl:sum 0
scalar SingleCell.ue[2].cellularNic.rlc.tm sentPacketToLowerLayer:count 0
scalar SingleCell.ue[2].cellularNic.rlc.tm sentPacketToLowerLayer:sum(packetBytes) 0
scalar SingleCell.ue[2].cellularNic.rlc.tm sentPacketToUpperLayer:count 0
scalar SingleCell.ue[2].cellularNic.rlc.tm sentPacketToUpperLayer:sum(packetBytes) 0
scalar SingleCell.ue[2].cellularNic.rlc.tm receivedPacketFromLowerLayer:count 0
scalar SingleCell.ue[2].cellularNic.rlc.tm receivedPacketFromLowerLayer:sum(packetBytes) 0
scalar SingleCell.ue[2].cellularNic.rlc.tm receivedPacketFromUpperLayer:count 0
scalar SingleCell.ue[2].cellularNic.rlc.tm receivedPacketFromUpperLayer:sum(packetBytes) 0
scalar SingleCell.ue[2].cellularNic.rlc.um rlcPacketLossTotal:mean 0
scalar SingleCell.ue[2].cellularNic.rlc.um rlcCellThroughputUl:mean -nan
scalar SingleCell.ue[2].cellularNic.rlc.um rlcCellThroughputDl:mean -nan
scalar SingleCell.ue[2].cellularNic.rlc.um rlcPduThroughputUl:mean 0
scalar SingleCell.ue[2].cellularNic.rlc.um rlcPduThroughputDl:mean -nan
scalar SingleCell.ue[2].cellularNic.rlc.um rlcPduDelayUl:mean 0.0047594936708860794
scalar SingleCell.ue[2].cellularNic.rlc.um rlcPduDelayDl:mean -nan
scalar SingleCell.ue[2].cellularNic.rlc.um rlcThroughputUl:mean 18625.100882639563
scalar SingleCell.ue[2].cellularNic.rlc.um rlcThroughputDl:mean -nan
scalar SingleCell.ue[2].cellularNic.rlc.um rlcDelayUl:mean 0.018107490775952369
scalar SingleCell.ue[2].cellularNic.rlc.um rlcDelayDl:mean -nan
scalar SingleCell.ue[2].cellularNic.rlc.um rlcPduPacketLossUl:mean 0
scalar SingleCell.ue[2].cellularNic.rlc.um rlcPduPacketLossDl:mean -nan
scalar SingleCell.ue[2].cellularNic.rlc.um rlcPacketLossUl:mean 0
scalar SingleCell.ue[2].cellularNic.rlc.um rlcPacketLossUl:sum 0
scalar SingleCell.ue[2].cellularNic.rlc.um rlcPacketLossDl:mean -nan
scalar SingleCell.ue[2].cellularNic.rlc.um rlcPacketLossDl:sum 0
scalar SingleCell.ue[2].cellularNic.rlc.um rlcCellPacketLossUl:mean -nan
scalar SingleCell.ue[2].cellularNic.rlc.um rlcCellPacketLossDl:mean -nan
scalar SingleCell.ue[2].cellularNic.rlc.um sentPacketToLowerLayer:count 158
scalar SingleCell.ue[2].cellularNic.rlc.um sentPacketToLowerLayer:sum(packetBytes) 6112
scalar SingleCell.ue[2].cellularNic.rlc.um sentPacketToUpperLayer:count 0
scalar SingleCell.ue[2].cellularNic.rlc.um sentPacketToUpperLayer:sum(packetBytes) 0
scalar SingleCell.ue[2].cellularNic.rlc.um receivedPacketFromLowerLayer:count 0
scalar SingleCell.ue[2].cellularNic.rlc.um receivedPacketFromLowerLayer:sum(packetBytes) 0
scalar SingleCell.ue[2].cellularNic.rlc.um receivedPacketFromUpperLayer:count 84
scalar SingleCell.ue[2].cellularNic.rlc.um receivedPacketFromUpperLayer:sum(packetBytes) 5796
scalar SingleCell.ue[2].cellularNic.rlc.am rlcPacketLossTotal:mean -nan
scalar SingleCell.ue[2].cellularNic.rlc.am rlcCellThroughputUl:mean -nan
scalar SingleCell.ue[2].cellularNic.rlc.am rlcCellThroughputDl:mean -nan
scalar SingleCell.ue[2].cellularNic.rlc.am rlcPduThroughputUl:mean -nan
scalar SingleCell.ue[2].cellularNic.rlc.am rlcPduThroughputDl:mean -nan
scalar SingleCell.ue[2].cellularNic.rlc.am rlcPduDelayUl:mean -nan
scalar SingleCell.ue[2].cellularNic.rlc.am rlcPduDelayDl:mean -nan
scalar SingleCell.ue[2].cellularNic.rlc.am rlcThroughputUl:mean -nan
scalar SingleCell.ue[2].cellularNic.rlc.am rlcThroughputDl:mean -nan
scalar SingleCell.ue[2].cellularNic.rlc.am rlcDelayUl:mean -nan
scalar SingleCell.ue[2].cellularNic.rlc.am rlcDelayDl:mean -nan
scalar SingleCell.ue[2].cellularNic.rlc.am rlcPduPacketLossUl:mean -nan
scalar SingleCell.ue[2].cellularNic.rlc.am rlcPduPacketLossDl:mean -nan
scalar SingleCell.ue[2].cellularNic.rlc.am rlcPacketLossUl:mean -nan
scalar SingleCell.ue[2].cellularNic.rlc.am rlcPacketLossDl:mean -nan
scalar SingleCell.ue[2].cellularNic.rlc.am rlcCellPacketLossUl:mean -nan
scalar SingleCell.ue[2].cellularNic.rlc.am rlcCellPacketLossDl:mean -nan
scalar SingleCell.ue[2].cellularNic.mac harqTxAttemptsUl:mean 1.0126582278481013
scalar SingleCell.ue[2].cellularNic.mac harqTxAttemptsDl:mean -nan
scalar SingleCell.ue[2].cellularNic.mac harqErrorRate_4th_Ul:mean -nan
scalar SingleCell.ue[2].cellularNic.mac harqErrorRate_4th_Dl:mean -nan
scalar SingleCell.ue[2].cellularNic.mac harqErrorRate_3rd_Ul:mean -nan
scalar SingleCell.ue[2].cellularNic.mac harqErrorRate_3rd_Dl:mean -nan
scalar SingleCell.ue[2].cellularNic.mac harqErrorRate_2nd_Ul:mean 0
scalar SingleCell.ue[2].cellularNic.mac harqErrorRate_2nd_Dl:mean -nan
scalar SingleCell.ue[2].cellularNic.mac harqErrorRate_1st_Ul:mean 0.012658227848101266
scalar SingleCell.ue[2].cellularNic.mac harqErrorRate_1st_Dl:mean -nan
scalar SingleCell.ue[2].cellularNic.mac harqErrorRateUl:mean 0.012500000000000001
scalar SingleCell.ue[2].cellularNic.mac harqErrorRateDl:mean -nan
scalar SingleCell.ue[2].cellularNic.mac macCellPacketLossUl:mean -nan
scalar SingleCell.ue[2].cellularNic.mac macCellPacketLossDl:mean -nan
scalar SingleCell.ue[2].cellularNic.mac macPacketLossUl:mean 0
scalar SingleCell.ue[2].cellularNic.mac macPacketLossDl:mean -nan
scalar SingleCell.ue[2].cellularNic.mac macThroughputUl:mean 20658.547885972581
scalar SingleCell.ue[2].cellularNic.mac macThroughputDl:mean -nan
scalar SingleCell.ue[2].cellularNic.mac macDelayUl:mean 0.0047594936708860794
scalar SingleCell.ue[2].cellularNic.mac macDelayDl:mean -nan
scalar SingleCell.ue[2].cellularNic.mac macCellThroughputUl:mean -nan
scalar SingleCell.ue[2].cellularNic.mac macCellThroughputDl:mean -nan
scalar SingleCell.ue[2].cellularNic.mac sentPacketToLowerLayer:count 243
scalar SingleCell.ue[2].cellularNic.mac sentPacketToLowerLayer:sum(packetBytes) 6602
scalar SingleCell.ue[2].cellularNic.mac sentPacketToUpperLayer:count 158
scalar SingleCell.ue[2].cellularNic.mac sentPacketToUpperLayer:sum(packetBytes) 158
scalar SingleCell.ue[2].cellularNic.mac receivedPacketFromLowerLayer:count 404
scalar SingleCell.ue[2].cellularNic.mac receivedPacketFromLowerLayer:sum(packetBytes) 404
scalar SingleCell.ue[2].cellularNic.mac receivedPacketFromUpperLayer:count 242
scalar SingleCell.ue[2].cellularNic.mac receivedPacketFromUpperLayer:sum(packetBytes) 12076
scalar SingleCell.ue[2].cellularNic.mac macBufferOverFlowD2D:mean -nan
scalar SingleCell.ue[2].cellularNic.mac macBufferOverFlowUl:mean -nan
scalar SingleCell.ue[2].cellularNic.mac macBufferOverFlowDl:mean -nan
scalar SingleCell.ue[2].cellularNic.phy distance:mean 173.53590399144105
scalar SingleCell.ue[2].cellularNic.phy averageCqiUl:mean 11.043749999999999
scalar SingleCell.ue[2].cellularNic.phy averageCqiUl:count 160
scalar SingleCell.ue[2].cellularNic.phy averageCqiDl:mean -nan
scalar SingleCell.ue[2].cellularNic.phy averageCqiDl:count 0
scalar SingleCell.ue[2].cellularNic.channelModel[0] measuredSinrUl:mean 22.872274857416734
scalar SingleCell.ue[2].cellularNic.channelModel[0] measuredSinrDl:mean 45.341985817805018
scalar SingleCell.ue[2].cellularNic.channelModel[0] rcvdSinrD2D:mean -nan
scalar SingleCell.ue[2].cellularNic.channelModel[0] rcvdSinrUl:mean 21.757818782493882
scalar SingleCell.ue[2].cellularNic.channelModel[0] rcvdSinrDl:mean -nan
scalar SingleCell.ue[2].cellularNic packetDropInterfaceDown:count 0
scalar SingleCell.ue[2].cellularNic packetDropInterfaceDown:sum(packetBytes) 0
scalar SingleCell.ue[2].cellularNic packetDropNoCarrier:count 0
scalar SingleCell.ue[2].cellularNic packetDropNoCarrier:sum(packetBytes) 0
scalar SingleCell.ue[2].encap pauseSent:count 0
scalar SingleCell.ue[2].encap pauseSent:sum 0
scalar SingleCell.ue[2].encap decapPk:count 0
scalar SingleCell.ue[2].encap decapPk:sum(packetBytes) 0
scalar SingleCell.ue[2].encap encapPk:count 0
scalar SingleCell.ue[2].encap encapPk:sum(packetBytes) 0
scalar SingleCell.ue[2].ipv4.ip packetDropAddressResolutionFailed:count 0
scalar SingleCell.ue[2].ipv4.ip packetDropAddressResolutionFailed:sum(packetBytes) 0
scalar SingleCell.ue[2].ipv4.ip packetDropHopLimitReached:count 0
scalar SingleCell.ue[2].ipv4.ip packetDropHopLimitReached:sum(packetBytes) 0
scalar SingleCell.ue[2].ipv4.ip packetDropForwardingDisabled:count 0
scalar SingleCell.ue[2].ipv4.ip packetDropForwardingDisabled:sum(packetBytes) 0
scalar SingleCell.ue[2].ipv4.ip packetDropNoInterfaceFound:count 0
scalar SingleCell.ue[2].ipv4.ip packetDropNoInterfaceFound:sum(packetBytes) 0
scalar SingleCell.ue[2].ipv4.ip packetDropNoRouteFound:count 0
scalar SingleCell.ue[2].ipv4.ip packetDropNoRouteFound:sum(packetBytes) 0
scalar SingleCell.ue[2].ipv4.ip packetDropUndefined:count 0
scalar SingleCell.ue[2].ipv4.ip packetDropUndefined:sum(packetBytes) 0
scalar SingleCell.ue[2].ipv4.arp arpResolutionFailed:count 0
scalar SingleCell.ue[2].ipv4.arp arpResolutionCompleted:count 0
scalar SingleCell.ue[2].ipv4.arp arpResolutionInitiated:count 0
scalar SingleCell.ue[2].ipv4.arp arpReplySent:count 0
scalar SingleCell.ue[2].ipv4.arp arpReplySent:sum(packetBytes) 0
scalar SingleCell.ue[2].ipv4.arp arpRequestSent:count 0
scalar SingleCell.ue[2].ipv4.arp arpRequestSent:sum(packetBytes) 0
scalar SingleCell.ue[2].udp packetReceived:count 0
scalar SingleCell.ue[2].udp packetReceived:sum(packetBytes) 0
scalar SingleCell.ue[2].udp packetSent:count 84
scalar SingleCell.ue[2].udp packetSent:sum(packetBytes) 4032
scalar SingleCell.ue[2].udp passedUpPk:count 0
scalar SingleCell.ue[2].udp droppedPkWrongPort:count 0
scalar SingleCell.ue[2].udp droppedPkBadChecksum:count 0
scalar SingleCell.ue[2].app[0] voIPGeneratedThroughput:mean 28103.722684660926
scalar SingleCell.ue[3].lo[0].lo rcvdPkFromHl:count 0
scalar SingleCell.ue[3].lo[0].lo rcvdPkFromHl:sum(packetBytes) 0
scalar SingleCell.ue[3].lo[0].lo passedUpPk:count 0
scalar SingleCell.ue[3].lo[0].lo passedUpPk:sum(packetBytes) 0
scalar SingleCell.ue[3].lo[0] packetDropInterfaceDown:count 0
scalar SingleCell.ue[3].lo[0] packetDropInterfaceDown:sum(packetBytes) 0
scalar SingleCell.ue[3].lo[0] packetDropNoCarrier:count 0
scalar SingleCell.ue[3].lo[0] packetDropNoCarrier:sum(packetBytes) 0
scalar SingleCell.ue[3].cellularNic.pdcp sentPacketToLowerLayer:count 72
scalar SingleCell.ue[3].cellularNic.pdcp sentPacketToLowerLayer:sum(packetBytes) 4968
scalar SingleCell.ue[3].cellularNic.pdcp sentPacketToUpperLayer:count 0
scalar SingleCell.ue[3].cellularNic.pdcp sentPacketToUpperLayer:sum(packetBytes) 0
scalar SingleCell.ue[3].cellularNic.pdcp receivedPacketFromLowerLayer:count 0
scalar SingleCell.ue[3].cellularNic.pdcp receivedPacketFromLowerLayer:sum(packetBytes) 0
scalar SingleCell.ue[3].cellularNic.pdcp receivedPacketFromUpperLayer:count 72
scalar SingleCell.ue[3].cellularNic.pdcp receivedPacketFromUpperLayer:sum(packetBytes) 4896
scalar SingleCell.ue[3].cellularNic.rlc.tm rlcPacketLossUl:mean -nan
scalar SingleCell.ue[3].cellularNic.rlc.tm rlcPacketLossUl:sum 0
scalar SingleCell.ue[3].cellularNic.rlc.tm rlcPacketLossDl:mean -nan
scalar SingleCell.ue[3].cellularNic.rlc.tm rlcPacketLossDl:sum 0
scalar SingleCell.ue[3].cellularNic.rlc.tm sentPacketToLowerLayer:count 0
scalar SingleCell.ue[3].cellularNic.rlc.tm sentPacketToLowerLayer:sum(packetBytes) 0
scalar SingleCell.ue[3].cellularNic.rlc.tm sentPacketToUpperLayer:count 0
scalar SingleCell.ue[3].cellularNic.rlc.tm sentPacketToUpperLayer:sum(packetBytes) 0
scalar SingleCell.ue[3].cellularNic.rlc.tm receivedPacketFromLowerLayer:count 0
scalar SingleCell.ue[3].cellularNic.rlc.tm receivedPacketFromLowerLayer:sum(packetBytes) 0
scalar SingleCell.ue[3].cellularNic.rlc.tm receivedPacketFromUpperLayer:count 0
scalar SingleCell.ue[3].cellularNic.rlc.tm receivedPacketFromUpperLayer:sum(packetBytes) 0
scalar SingleCell.ue[3].cellularNic.rlc.um rlcPacketLossTotal:mean 0
scalar SingleCell.ue[3].cellularNic.rlc.um rlcCellThroughputUl:mean -nan
scalar SingleCell.ue[3].cellularNic.rlc.um rlcCellThroughputDl:mean -nan
scalar SingleCell.ue[3].cellularNic.rlc.um rlcPduThroughputUl:mean 0
scalar SingleCell.ue[3].cellularNic.rlc.um rlcPduThroughputDl:mean -nan
scalar SingleCell.ue[3].cellularNic.rlc.um rlcPduDelayUl:mean 0.0040000000000000027
scalar SingleCell.ue[3].cellularNic.rlc.um rlcPduDelayDl:mean -nan
scalar SingleCell.ue[3].cellularNic.rlc.um rlcThroughputUl:mean 3337.5632870815457
scalar SingleCell.ue[3].cellularNic.rlc.um rlcThroughputDl:mean -nan
scalar SingleCell.ue[3].cellularNic.rlc.um rlcDelayUl:mean 0.0089231405959166663
scalar SingleCell.ue[3].cellularNic.rlc.um rlcDelayDl:mean -nan
scalar SingleCell.ue[3].cellularNic.rlc.um rlcPduPacketLossUl:mean 0
scalar SingleCell.ue[3].cellularNic.rlc.um rlcPduPacketLossDl:mean -nan
scalar SingleCell.ue[3].cellularNic.rlc.um rlcPacketLossUl:mean 0
scalar SingleCell.ue[3].cellularNic.rlc.um rlcPacketLossUl:sum 0
scalar SingleCell.ue[3].cellularNic.rlc.um rlcPacketLossDl:mean -nan
scalar SingleCell.ue[3].cellularNic.rlc.um rlcPacketLossDl:sum 0
scalar SingleCell.ue[3].cellularNic.rlc.um rlcCellPacketLossUl:mean -nan
scalar SingleCell.ue[3].cellularNic.rlc.um rlcCellPacketLossDl:mean -nan
scalar SingleCell.ue[3].cellularNic.rlc.um sentPacketToLowerLayer:count 79
scalar SingleCell.ue[3].cellularNic.rlc.um sentPacketToLowerLayer:sum(packetBytes) 5126
scalar SingleCell.ue[3].cellularNic.rlc.um sentPacketToUpperLayer:count 0
scalar SingleCell.ue[3].cellularNic.rlc.um sentPacketToUpperLayer:sum(packetBytes) 0
scalar SingleCell.ue[3].cellularNic.rlc.um receivedPacketFromLowerLayer:count 0
scalar SingleCell.ue[3].cellularNic.rlc.um receivedPacketFromLowerLayer:sum(packetBytes) 0
scalar SingleCell.ue[3].cellularNic.rlc.um receivedPacketFromUpperLayer:count 72
scalar SingleCell.ue[3].cellularNic.rlc.um receivedPacketFromUpperLayer:sum(packetBytes) 4968
scalar SingleCell.ue[3].cellularNic.rlc.am rlcPacketLossTotal:mean -nan
scalar SingleCell.ue[3].cellularNic.rlc.am rlcCellThroughputUl:mean -nan
scalar SingleCell.ue[3].cellularNic.rlc.am rlcCellThroughputDl:mean -nan
scalar SingleCell.ue[3].cellularNic.rlc.am rlcPduThroughputUl:mean -nan
scalar SingleCell.ue[3].cellularNic.rlc.am rlcPduThroughputDl:mean -nan
scalar SingleCell.ue[3].cellularNic.rlc.am rlcPduDelayUl:mean -nan
scalar SingleCell.ue[3].cellularNic.rlc.am rlcPduDelayDl:mean -nan
scalar SingleCell.ue[3].cellularNic.rlc.am rlcThroughputUl:mean -nan
scalar SingleCell.ue[3].cellularNic.rlc.am rlcThroughputDl:mean -nan
scalar SingleCell.ue[3].cellularNic.rlc.am rlcDelayUl:mean -nan
scalar SingleCell.ue[3].cellularNic.rlc.am rlcDelayDl:mean -nan
scalar SingleCell.ue[3].cellularNic.rlc.am rlcPduPacketLossUl:mean -nan
scalar SingleCell.ue[3].cellularNic.rlc.am rlcPduPacketLossDl:mean -nan
scalar SingleCell.ue[3].cellularNic.rlc.am rlcPacketLossUl:mean -nan
scalar SingleCell.ue[3].cellularNic.rlc.am rlcPacketLossDl:mean -nan
scalar SingleCell.ue[3].cellularNic.rlc.am rlcCellPacketLossUl:mean -nan
scalar SingleCell.ue[3].cellularNic.rlc.am rlcCellPacketLossDl:mean -nan
scalar SingleCell.ue[3].cellularNic.mac harqTxAttemptsUl:mean 1
scalar SingleCell.ue[3].cellularNic.mac harqTxAttemptsDl:mean -nan
scalar SingleCell.ue[3].cellularNic.mac harqErrorRate_4th_Ul:mean -nan
scalar SingleCell.ue[3].cellularNic.mac harqErrorRate_4th_Dl:mean -nan
scalar SingleCell.ue[3].cellularNic.mac harqErrorRate_3rd_Ul:mean -nan
scalar SingleCell.ue[3].cellularNic.mac harqErrorRate_3rd_Dl:mean -nan
scalar SingleCell.ue[3].cellularNic.mac harqErrorRate_2nd_Ul:mean -nan
scalar SingleCell.ue[3].cellularNic.mac harqErrorRate_2nd_Dl:mean -nan
scalar SingleCell.ue[3].cellularNic.mac harqErrorRate_1st_Ul:mean 0
scalar SingleCell.ue[3].cellularNic.mac harqErrorRate_1st_Dl:mean -nan
scalar SingleCell.ue[3].cellularNic.mac harqErrorRateUl:mean 0
scalar SingleCell.ue[3].cellularNic.mac harqErrorRateDl:mean -nan
scalar SingleCell.ue[3].cellularNic.mac macCellPacketLossUl:mean -nan
scalar SingleCell.ue[3].cellularNic.mac macCellPacketLossDl:mean -nan
scalar SingleCell.ue[3].cellularNic.mac macPacketLossUl:mean 0
scalar SingleCell.ue[3].cellularNic.mac macPacketLossDl:mean -nan
scalar SingleCell.ue[3].cellularNic.mac macThroughputUl:mean 3533.8755499568119
scalar SingleCell.ue[3].cellularNic.mac macThroughputDl:mean -nan
scalar SingleCell.ue[3].cellularNic.mac macDelayUl:mean 0.0040000000000000027
scalar SingleCell.ue[3].cellularNic.mac macDelayDl:mean -nan
scalar SingleCell.ue[3].cellularNic.mac macCellThroughputUl:mean -nan
scalar SingleCell.ue[3].cellularNic.mac macCellThroughputDl:mean -nan
scalar SingleCell.ue[3].cellularNic.mac sentPacketToLowerLayer:count 151
scalar SingleCell.ue[3].cellularNic.mac sentPacketToLowerLayer:sum(packetBytes) 5356
scalar SingleCell.ue[3].cellularNic.mac sentPacketToUpperLayer:count 79
scalar SingleCell.ue[3].cellularNic.mac sentPacketToUpperLayer:sum(packetBytes) 79
scalar SingleCell.ue[3].cellularNic.mac receivedPacketFromLowerLayer:count 230
scalar SingleCell.ue[3].cellularNic.mac receivedPacketFromLowerLayer:sum(packetBytes) 230
scalar SingleCell.ue[3].cellularNic.mac receivedPacketFromUpperLayer:count 151
scalar SingleCell.ue[3].cellularNic.mac receivedPacketFromUpperLayer:sum(packetBytes) 10238
scalar SingleCell.ue[3].cellularNic.mac macBufferOverFlowD2D:mean -nan
scalar SingleCell.ue[3].cellularNic.mac macBufferOverFlowUl:mean -nan
scalar SingleCell.ue[3].cellularNic.mac macBufferOverFlowDl:mean -nan
scalar SingleCell.ue[3].cellularNic.phy distance:mean 250.41915604669043
scalar SingleCell.ue[3].cellularNic.phy averageCqiUl:mean 12.898734177215189
scalar SingleCell.ue[3].cellularNic.phy averageCqiUl:count 79
scalar SingleCell.ue[3].cellularNic.phy averageCqiDl:mean -nan
scalar SingleCell.ue[3].cellularNic.phy averageCqiDl:count 0
scalar SingleCell.ue[3].cellularNic.channelModel[0] measuredSinrUl:mean 25.99079986073902
scalar SingleCell.ue[3].cellularNic.channelModel[0] measuredSinrDl:mean 35.720464107559785
scalar SingleCell.ue[3].cellularNic.channelModel[0] rcvdSinrD2D:mean -nan
scalar SingleCell.ue[3].cellularNic.channelModel[0] rcvdSinrUl:mean 31.473356337624438
scalar SingleCell.ue[3].cellularNic.channelModel[0] rcvdSinrDl:mean -nan
scalar SingleCell.ue[3].cellularNic packetDropInterfaceDown:count 0
scalar SingleCell.ue[3].cellularNic packetDropInterfaceDown:sum(packetBytes) 0
scalar SingleCell.ue[3].cellularNic packetDropNoCarrier:count 0
scalar SingleCell.ue[3].cellularNic packetDropNoCarrier:sum(packetBytes) 0
scalar SingleCell.ue[3].encap pauseSent:count 0
scalar SingleCell.ue[3].encap pauseSent:sum 0
scalar SingleCell.ue[3].encap decapPk:count 0
scalar SingleCell.ue[3].encap decapPk:sum(packetBytes) 0
scalar SingleCell.ue[3].encap encapPk:count 0
scalar SingleCell.ue[3].encap encapPk:sum(packetBytes) 0
scalar SingleCell.ue[3].ipv4.ip packetDropAddressResolutionFailed:count 0
scalar SingleCell.ue[3].ipv4.ip packetDropAddressResolutionFailed:sum(packetBytes) 0
scalar SingleCell.ue[3].ipv4.ip packetDropHopLimitReached:count 0
scalar SingleCell.ue[3].ipv4.ip packetDropHopLimitReached:sum(packetBytes) 0
scalar SingleCell.ue[3].ipv4.ip packetDropForwardingDisabled:count 0
scalar SingleCell.ue[3].ipv4.ip packetDropForwardingDisabled:sum(packetBytes) 0
scalar SingleCell.ue[3].ipv4.ip packetDropNoInterfaceFound:count 0
scalar SingleCell.ue[3].ipv4.ip packetDropNoInterfaceFound:sum(packetBytes) 0
scalar SingleCell.ue[3].ipv4.ip packetDropNoRouteFound:count 0
scalar SingleCell.ue[3].ipv4.ip packetDropNoRouteFound:sum(packetBytes) 0
scalar SingleCell.ue[3].ipv4.ip packetDropUndefined:count 0
scalar SingleCell.ue[3].ipv4.ip packetDropUndefined:sum(packetBytes) 0
scalar SingleCell.ue[3].ipv4.arp arpResolutionFailed:count 0
scalar SingleCell.ue[3].ipv4.arp arpResolutionCompleted:count 0
scalar SingleCell.ue[3].ipv4.arp arpResolutionInitiated:count 0
scalar SingleCell.ue[3].ipv4.arp arpReplySent:count 0
scalar SingleCell.ue[3].ipv4.arp arpReplySent:sum(packetBytes) 0
scalar SingleCell.ue[3].ipv4.arp arpRequestSent:count 0
scalar SingleCell.ue[3].ipv4.arp arpRequestSent:sum(packetBytes) 0
scalar SingleCell.ue[3].udp packetReceived:count 0
scalar SingleCell.ue[3].udp packetReceived:sum(packetBytes) 0
scalar SingleCell.ue[3].udp packetSent:count 72
scalar SingleCell.ue[3].udp packetSent:sum(packetBytes) 3456
scalar SingleCell.ue[3].udp passedUpPk:count 0
scalar SingleCell.ue[3].udp droppedPkWrongPort:count 0
scalar SingleCell.ue[3].udp droppedPkBadChecksum:count 0
scalar SingleCell.ue[3].app[0] voIPGeneratedThroughput:mean 1948.9350370737936
scalar SingleCell.ue[4].lo[0].lo rcvdPkFromHl:count 0
scalar SingleCell.ue[4].lo[0].lo rcvdPkFromHl:sum(packetBytes) 0
scalar SingleCell.ue[4].lo[0].lo passedUpPk:count 0
scalar SingleCell.ue[4].lo[0].lo passedUpPk:sum(packetBytes) 0
scalar SingleCell.ue[4].lo[0] packetDropInterfaceDown:count 0
scalar SingleCell.ue[4].lo[0] packetDropInterfaceDown:sum(packetBytes) 0
scalar SingleCell.ue[4].lo[0] packetDropNoCarrier:count 0
scalar SingleCell.ue[4].lo[0] packetDropNoCarrier:sum(packetBytes) 0
scalar SingleCell.ue[4].cellularNic.pdcp sentPacketToLowerLayer:count 150
scalar SingleCell.ue[4].cellularNic.pdcp sentPacketToLowerLayer:sum(packetBytes) 10350
scalar SingleCell.ue[4].cellularNic.pdcp sentPacketToUpperLayer:count 0
scalar SingleCell.ue[4].cellularNic.pdcp sentPacketToUpperLayer:sum(packetBytes) 0
scalar SingleCell.ue[4].cellularNic.pdcp receivedPacketFromLowerLayer:count 0
scalar SingleCell.ue[4].cellularNic.pdcp receivedPacketFromLowerLayer:sum(packetBytes) 0
scalar SingleCell.ue[4].cellularNic.pdcp receivedPacketFromUpperLayer:count 150
scalar SingleCell.ue[4].cellularNic.pdcp receivedPacketFromUpperLayer:sum(packetBytes) 10200
scalar SingleCell.ue[4].cellularNic.rlc.tm rlcPacketLossUl:mean -nan
scalar SingleCell.ue[4].cellularNic.rlc.tm rlcPacketLossUl:sum 0
scalar SingleCell.ue[4].cellularNic.rlc.tm rlcPacketLossDl:mean -nan
scalar SingleCell.ue[4].cellularNic.rlc.tm rlcPacketLossDl:sum 0
scalar SingleCell.ue[4].cellularNic.rlc.tm sentPacketToLowerLayer:count 0
scalar SingleCell.ue[4].cellularNic.rlc.tm sentPacketToLowerLayer:sum(packetBytes) 0
scalar SingleCell.ue[4].cellularNic.rlc.tm sentPacketToUpperLayer:count 0
scalar SingleCell.ue[4].cellularNic.rlc.tm sentPacketToUpperLayer:sum(packetBytes) 0
scalar SingleCell.ue[4].cellularNic.rlc.tm receivedPacketFromLowerLayer:count 0
scalar SingleCell.ue[4].cellularNic.rlc.tm receivedPacketFromLowerLayer:sum(packetBytes) 0
scalar SingleCell.ue[4].cellularNic.rlc.tm receivedPacketFromUpperLayer:count 0
scalar SingleCell.ue[4].cellularNic.rlc.tm receivedPacketFromUpperLayer:sum(packetBytes) 0
scalar SingleCell.ue[4].cellularNic.rlc.um rlcPacketLossTotal:mean 0
scalar SingleCell.ue[4].cellularNic.rlc.um rlcCellThroughputUl:mean -nan
scalar SingleCell.ue[4].cellularNic.rlc.um rlcCellThroughputDl:mean -nan
scalar SingleCell.ue[4].cellularNic.rlc.um rlcPduThroughputUl:mean 0
scalar SingleCell.ue[4].cellularNic.rlc.um rlcPduThroughputDl:mean -nan
scalar SingleCell.ue[4].cellularNic.rlc.um rlcPduDelayUl:mean 0.0045263157894736873
scalar SingleCell.ue[4].cellularNic.rlc.um rlcPduDelayDl:mean -nan
scalar SingleCell.ue[4].cellularNic.rlc.um rlcThroughputUl:mean 17806.280651777033
scalar SingleCell.ue[4].cellularNic.rlc.um rlcThroughputDl:mean -nan
scalar SingleCell.ue[4].cellularNic.rlc.um rlcDelayUl:mean 0.0095832045836666529
scalar SingleCell.ue[4].cellularNic.rlc.um rlcDelayDl:mean -nan
scalar SingleCell.ue[4].cellularNic.rlc.um rlcPduPacketLossUl:mean 0
scalar SingleCell.ue[4].cellularNic.rlc.um rlcPduPacketLossDl:mean -nan
scalar SingleCell.ue[4].cellularNic.rlc.um rlcPacketLossUl:mean 0
[...]
scalar SingleCell.ue[4].cellularNic.mac sentPacketToLowerLayer:vector(packetBytes):stddev nan
scalar SingleCell.ue[4].cellularNic.mac sentPacketToLowerLayer:vector(packetBytes):min inf
scalar SingleCell.ue[4].cellularNic.mac sentPacketToLowerLayer:vector(packetBytes):max -inf
scalar SingleCell.ue[4].cellularNic.mac sentPacketToLowerLayer:vector(packetBytes):starttime nan
scalar SingleCell.ue[4].cellularNic.mac sentPacketToLowerLayer:vector(packetBytes):endtime nan
scalar SingleCell.ue[4].cellularNic.phy distance:vector:count 0
scalar SingleCell.ue[4].cellularNic.phy distance:vector:sum 0
scalar SingleCell.ue[4].cellularNic.phy distance:vector:sumweights 0
scalar SingleCell.ue[4].cellularNic.phy distance:vector:mean -nan
scalar SingleCell.ue[4].cellularNic.phy distance:vector:stddev nan
scalar SingleCell.ue[4].cellularNic.phy distance:vector:min inf
scalar SingleCell.ue[4].cellularNic.phy distance:vector:max -inf
scalar SingleCell.ue[4].cellularNic.phy distance:vector:starttime nan
scalar SingleCell.ue[4].cellularNic.phy distance:vector:endtime nan
scalar SingleCell.ue[4].cellularNic.phy servingCell:vector:count 0
scalar SingleCell.ue[4].cellularNic.phy servingCell:vector:sum 0
scalar SingleCell.ue[4].cellularNic.phy servingCell:vector:sumweights 0
scalar SingleCell.ue[4].cellularNic.phy servingCell:vector:mean -nan
scalar SingleCell.ue[4].cellularNic.phy servingCell:vector:stddev nan
scalar SingleCell.ue[4].cellularNic.phy servingCell:vector:min inf
scalar SingleCell.ue[4].cellularNic.phy servingCell:vector:max -inf
scalar SingleCell.ue[4].cellularNic.phy servingCell:vector:starttime nan
scalar SingleCell.ue[4].cellularNic.phy servingCell:vector:endtime nan
scalar SingleCell.ue[4].cellularNic.phy averageCqiDl:vector:count 0
scalar SingleCell.ue[4].cellularNic.phy averageCqiDl:vector:sum 0
scalar SingleCell.ue[4].cellularNic.phy averageCqiDl:vector:sumweights 0
scalar SingleCell.ue[4].cellularNic.phy averageCqiDl:vector:mean -nan
scalar SingleCell.ue[4].cellularNic.phy averageCqiDl:vector:stddev nan
scalar SingleCell.ue[4].cellularNic.phy averageCqiDl:vector:min inf
scalar SingleCell.ue[4].cellularNic.phy averageCqiDl:vector:max -inf
scalar SingleCell.ue[4].cellularNic.phy averageCqiDl:vector:starttime nan
scalar SingleCell.ue[4].cellularNic.phy averageCqiDl:vector:endtime nan
scalar SingleCell.ue[4].cellularNic.phy averageCqiUl:vector:count 0
scalar SingleCell.ue[4].cellularNic.phy averageCqiUl:vector:sum 0
scalar SingleCell.ue[4].cellularNic.phy averageCqiUl:vector:sumweights 0
scalar SingleCell.ue[4].cellularNic.phy averageCqiUl:vector:mean -nan
scalar SingleCell.ue[4].cellularNic.phy averageCqiUl:vector:stddev nan
scalar SingleCell.ue[4].cellularNic.phy averageCqiUl:vector:min inf
scalar SingleCell.ue[4].cellularNic.phy averageCqiUl:vector:max -inf
scalar SingleCell.ue[4].cellularNic.phy averageCqiUl:vector:starttime nan
scalar SingleCell.ue[4].cellularNic.phy averageCqiUl:vector:endtime nan
scalar SingleCell.ue[4].cellularNic.channelModel[0] rcvdSinrDl:vector:count 0
scalar SingleCell.ue[4].cellularNic.channelModel[0] rcvdSinrDl:vector:sum 0
scalar SingleCell.ue[4].cellularNic.channelModel[0] rcvdSinrDl:vector:sumweights 0
scalar SingleCell.ue[4].cellularNic.channelModel[0] rcvdSinrDl:vector:mean -nan
scalar SingleCell.ue[4].cellularNic.channelModel[0] rcvdSinrDl:vector:stddev nan
scalar SingleCell.ue[4].cellularNic.channelModel[0] rcvdSinrDl:vector:min inf
scalar SingleCell.ue[4].cellularNic.channelModel[0] rcvdSinrDl:vector:max -inf
scalar SingleCell.ue[4].cellularNic.channelModel[0] rcvdSinrDl:vector:starttime nan
scalar SingleCell.ue[4].cellularNic.channelModel[0] rcvdSinrDl:vector:endtime nan
scalar SingleCell.ue[4].cellularNic.channelModel[0] rcvdSinrUl:vector:count 0
scalar SingleCell.ue[4].cellularNic.channelModel[0] rcvdSinrUl:vector:sum 0
scalar SingleCell.ue[4].cellularNic.channelModel[0] rcvdSinrUl:vector:sumweights 0
scalar SingleCell.ue[4].cellularNic.channelModel[0] rcvdSinrUl:vector:mean -nan
scalar SingleCell.ue[4].cellularNic.channelModel[0] rcvdSinrUl:vector:stddev nan
scalar SingleCell.ue[4].cellularNic.channelModel[0] rcvdSinrUl:vector:min inf
scalar SingleCell.ue[4].cellularNic.channelModel[0] rcvdSinrUl:vector:max -inf
scalar SingleCell.ue[4].cellularNic.channelModel[0] rcvdSinrUl:vector:starttime nan
scalar SingleCell.ue[4].cellularNic.channelModel[0] rcvdSinrUl:vector:endtime nan
scalar SingleCell.ue[4].cellularNic.channelModel[0] rcvdSinrD2D:vector:count 0
scalar SingleCell.ue[4].cellularNic.channelModel[0] rcvdSinrD2D:vector:sum 0
scalar SingleCell.ue[4].cellularNic.channelModel[0] rcvdSinrD2D:vector:sumweights 0
scalar SingleCell.ue[4].cellularNic.channelModel[0] rcvdSinrD2D:vector:mean -nan
scalar SingleCell.ue[4].cellularNic.channelModel[0] rcvdSinrD2D:vector:stddev nan
scalar SingleCell.ue[4].cellularNic.channelModel[0] rcvdSinrD2D:vector:min inf
scalar SingleCell.ue[4].cellularNic.channelModel[0] rcvdSinrD2D:vector:max -inf
scalar SingleCell.ue[4].cellularNic.channelModel[0] rcvdSinrD2D:vector:starttime nan
scalar SingleCell.ue[4].cellularNic.channelModel[0] rcvdSinrD2D:vector:endtime nan
scalar SingleCell.ue[4].cellularNic.channelModel[0] measuredSinrDl:vector:count 0
scalar SingleCell.ue[4].cellularNic.channelModel[0] measuredSinrDl:vector:sum 0
scalar SingleCell.ue[4].cellularNic.channelModel[0] measuredSinrDl:vector:sumweights 0
scalar SingleCell.ue[4].cellularNic.channelModel[0] measuredSinrDl:vector:mean -nan
scalar SingleCell.ue[4].cellularNic.channelModel[0] measuredSinrDl:vector:stddev nan
scalar SingleCell.ue[4].cellularNic.channelModel[0] measuredSinrDl:vector:min inf
scalar SingleCell.ue[4].cellularNic.channelModel[0] measuredSinrDl:vector:max -inf
scalar SingleCell.ue[4].cellularNic.channelModel[0] measuredSinrDl:vector:starttime nan
scalar SingleCell.ue[4].cellularNic.channelModel[0] measuredSinrDl:vector:endtime nan
scalar SingleCell.ue[4].cellularNic.channelModel[0] measuredSinrUl:vector:count 0
scalar SingleCell.ue[4].cellularNic.channelModel[0] measuredSinrUl:vector:sum 0
scalar SingleCell.ue[4].cellularNic.channelModel[0] measuredSinrUl:vector:sumweights 0
scalar SingleCell.ue[4].cellularNic.channelModel[0] measuredSinrUl:vector:mean -nan
scalar SingleCell.ue[4].cellularNic.channelModel[0] measuredSinrUl:vector:stddev nan
scalar SingleCell.ue[4].cellularNic.channelModel[0] measuredSinrUl:vector:min inf
scalar SingleCell.ue[4].cellularNic.channelModel[0] measuredSinrUl:vector:max -inf
scalar SingleCell.ue[4].cellularNic.channelModel[0] measuredSinrUl:vector:starttime nan
scalar SingleCell.ue[4].cellularNic.channelModel[0] measuredSinrUl:vector:endtime nan
scalar SingleCell.ue[4].cellularNic packetDropInterfaceDown:vector(packetBytes):count 0
scalar SingleCell.ue[4].cellularNic packetDropInterfaceDown:vector(packetBytes):sum 0
scalar SingleCell.ue[4].cellularNic packetDropInterfaceDown:vector(packetBytes):sumweights 0
scalar SingleCell.ue[4].cellularNic packetDropInterfaceDown:vector(packetBytes):mean -nan
scalar SingleCell.ue[4].cellularNic packetDropInterfaceDown:vector(packetBytes):stddev nan
scalar SingleCell.ue[4].cellularNic packetDropInterfaceDown:vector(packetBytes):min inf
scalar SingleCell.ue[4].cellularNic packetDropInterfaceDown:vector(packetBytes):max -inf
scalar SingleCell.ue[4].cellularNic packetDropInterfaceDown:vector(packetBytes):starttime nan
scalar SingleCell.ue[4].cellularNic packetDropInterfaceDown:vector(packetBytes):endtime nan
scalar SingleCell.ue[4].cellularNic packetDropNoCarrier:vector(packetBytes):count 0
scalar SingleCell.ue[4].cellularNic packetDropNoCarrier:vector(packetBytes):sum 0
scalar SingleCell.ue[4].cellularNic packetDropNoCarrier:vector(packetBytes):sumweights 0
scalar SingleCell.ue[4].cellularNic packetDropNoCarrier:vector(packetBytes):mean -nan
scalar SingleCell.ue[4].cellularNic packetDropNoCarrier:vector(packetBytes):stddev nan
scalar SingleCell.ue[4].cellularNic packetDropNoCarrier:vector(packetBytes):min inf
scalar SingleCell.ue[4].cellularNic packetDropNoCarrier:vector(packetBytes):max -inf
scalar SingleCell.ue[4].cellularNic packetDropNoCarrier:vector(packetBytes):starttime nan
scalar SingleCell.ue[4].cellularNic packetDropNoCarrier:vector(packetBytes):endtime nan
scalar SingleCell.ue[4].encap encapPk:vector(packetBytes):count 0
scalar SingleCell.ue[4].encap encapPk:vector(packetBytes):sum 0
scalar SingleCell.ue[4].encap encapPk:vector(packetBytes):sumweights 0
scalar SingleCell.ue[4].encap encapPk:vector(packetBytes):mean -nan
scalar SingleCell.ue[4].encap encapPk:vector(packetBytes):stddev nan
scalar SingleCell.ue[4].encap encapPk:vector(packetBytes):min inf
scalar SingleCell.ue[4].encap encapPk:vector(packetBytes):max -inf
scalar SingleCell.ue[4].encap encapPk:vector(packetBytes):starttime nan
scalar SingleCell.ue[4].encap encapPk:vector(packetBytes):endtime nan
scalar SingleCell.ue[4].encap decapPk:vector(packetBytes):count 0
scalar SingleCell.ue[4].encap decapPk:vector(packetBytes):sum 0
scalar SingleCell.ue[4].encap decapPk:vector(packetBytes):sumweights 0
scalar SingleCell.ue[4].encap decapPk:vector(packetBytes):mean -nan
scalar SingleCell.ue[4].encap decapPk:vector(packetBytes):stddev nan
scalar SingleCell.ue[4].encap decapPk:vector(packetBytes):min inf
scalar SingleCell.ue[4].encap decapPk:vector(packetBytes):max -inf
scalar SingleCell.ue[4].encap decapPk:vector(packetBytes):starttime nan
scalar SingleCell.ue[4].encap decapPk:vector(packetBytes):endtime nan
scalar SingleCell.ue[4].encap pauseSent:vector:count 0
scalar SingleCell.ue[4].encap pauseSent:vector:sum 0
scalar SingleCell.ue[4].encap pauseSent:vector:sumweights 0
scalar SingleCell.ue[4].encap pauseSent:vector:mean -nan
scalar SingleCell.ue[4].encap pauseSent:vector:stddev nan
scalar SingleCell.ue[4].encap pauseSent:vector:min inf
scalar SingleCell.ue[4].encap pauseSent:vector:max -inf
scalar SingleCell.ue[4].encap pauseSent:vector:starttime nan
scalar SingleCell.ue[4].encap pauseSent:vector:endtime nan
scalar SingleCell.ue[4].ipv4.ip packetDropAddressResolutionFailed:vector(packetBytes):count 0
scalar SingleCell.ue[4].ipv4.ip packetDropAddressResolutionFailed:vector(packetBytes):sum 0
scalar SingleCell.ue[4].ipv4.ip packetDropAddressResolutionFailed:vector(packetBytes):sumweights 0
scalar SingleCell.ue[4].ipv4.ip packetDropAddressResolutionFailed:vector(packetBytes):mean -nan
scalar SingleCell.ue[4].ipv4.ip packetDropAddressResolutionFailed:vector(packetBytes):stddev nan
scalar SingleCell.ue[4].ipv4.ip packetDropAddressResolutionFailed:vector(packetBytes):min inf
scalar SingleCell.ue[4].ipv4.ip packetDropAddressResolutionFailed:vector(packetBytes):max -inf
scalar SingleCell.ue[4].ipv4.ip packetDropAddressResolutionFailed:vector(packetBytes):starttime nan
scalar SingleCell.ue[4].ipv4.ip packetDropAddressResolutionFailed:vector(packetBytes):endtime nan
scalar SingleCell.ue[4].ipv4.ip packetDropHopLimitReached:vector(packetBytes):count 0
scalar SingleCell.ue[4].ipv4.ip packetDropHopLimitReached:vector(packetBytes):sum 0
scalar SingleCell.ue[4].ipv4.ip packetDropHopLimitReached:vector(packetBytes):sumweights 0
scalar SingleCell.ue[4].ipv4.ip packetDropHopLimitReached:vector(packetBytes):mean -nan
scalar SingleCell.ue[4].ipv4.ip packetDropHopLimitReached:vector(packetBytes):stddev nan
scalar SingleCell.ue[4].ipv4.ip packetDropHopLimitReached:vector(packetBytes):min inf
scalar SingleCell.ue[4].ipv4.ip packetDropHopLimitReached:vector(packetBytes):max -inf
scalar SingleCell.ue[4].ipv4.ip packetDropHopLimitReached:vector(packetBytes):starttime nan
scalar SingleCell.ue[4].ipv4.ip packetDropHopLimitReached:vector(packetBytes):endtime nan
scalar SingleCell.ue[4].ipv4.ip packetDropForwardingDisabled:vector(packetBytes):count 0
scalar SingleCell.ue[4].ipv4.ip packetDropForwardingDisabled:vector(packetBytes):sum 0
scalar SingleCell.ue[4].ipv4.ip packetDropForwardingDisabled:vector(packetBytes):sumweights 0
scalar SingleCell.ue[4].ipv4.ip packetDropForwardingDisabled:vector(packetBytes):mean -nan
scalar SingleCell.ue[4].ipv4.ip packetDropForwardingDisabled:vector(packetBytes):stddev nan
scalar SingleCell.ue[4].ipv4.ip packetDropForwardingDisabled:vector(packetBytes):min inf
scalar SingleCell.ue[4].ipv4.ip packetDropForwardingDisabled:vector(packetBytes):max -inf
scalar SingleCell.ue[4].ipv4.ip packetDropForwardingDisabled:vector(packetBytes):starttime nan
scalar SingleCell.ue[4].ipv4.ip packetDropForwardingDisabled:vector(packetBytes):endtime nan
scalar SingleCell.ue[4].ipv4.ip packetDropNoInterfaceFound:vector(packetBytes):count 0
scalar SingleCell.ue[4].ipv4.ip packetDropNoInterfaceFound:vector(packetBytes):sum 0
scalar SingleCell.ue[4].ipv4.ip packetDropNoInterfaceFound:vector(packetBytes):sumweights 0
scalar SingleCell.ue[4].ipv4.ip packetDropNoInterfaceFound:vector(packetBytes):mean -nan
scalar SingleCell.ue[4].ipv4.ip packetDropNoInterfaceFound:vector(packetBytes):stddev nan
scalar SingleCell.ue[4].ipv4.ip packetDropNoInterfaceFound:vector(packetBytes):min inf
scalar SingleCell.ue[4].ipv4.ip packetDropNoInterfaceFound:vector(packetBytes):max -inf
scalar SingleCell.ue[4].ipv4.ip packetDropNoInterfaceFound:vector(packetBytes):starttime nan
scalar SingleCell.ue[4].ipv4.ip packetDropNoInterfaceFound:vector(packetBytes):endtime nan
scalar SingleCell.ue[4].ipv4.ip packetDropNoRouteFound:vector(packetBytes):count 0
scalar SingleCell.ue[4].ipv4.ip packetDropNoRouteFound:vector(packetBytes):sum 0
scalar SingleCell.ue[4].ipv4.ip packetDropNoRouteFound:vector(packetBytes):sumweights 0
scalar SingleCell.ue[4].ipv4.ip packetDropNoRouteFound:vector(packetBytes):mean -nan
scalar SingleCell.ue[4].ipv4.ip packetDropNoRouteFound:vector(packetBytes):stddev nan
scalar SingleCell.ue[4].ipv4.ip packetDropNoRouteFound:vector(packetBytes):min inf
scalar SingleCell.ue[4].ipv4.ip packetDropNoRouteFound:vector(packetBytes):max -inf
scalar SingleCell.ue[4].ipv4.ip packetDropNoRouteFound:vector(packetBytes):starttime nan
scalar SingleCell.ue[4].ipv4.ip packetDropNoRouteFound:vector(packetBytes):endtime nan
scalar SingleCell.ue[4].ipv4.ip packetDropUndefined:vector(packetBytes):count 0
scalar SingleCell.ue[4].ipv4.ip packetDropUndefined:vector(packetBytes):sum 0
scalar SingleCell.ue[4].ipv4.ip packetDropUndefined:vector(packetBytes):sumweights 0
scalar SingleCell.ue[4].ipv4.ip packetDropUndefined:vector(packetBytes):mean -nan
scalar SingleCell.ue[4].ipv4.ip packetDropUndefined:vector(packetBytes):stddev nan
scalar SingleCell.ue[4].ipv4.ip packetDropUndefined:vector(packetBytes):min inf
scalar SingleCell.ue[4].ipv4.ip packetDropUndefined:vector(packetBytes):max -inf
scalar SingleCell.ue[4].ipv4.ip packetDropUndefined:vector(packetBytes):starttime nan
scalar SingleCell.ue[4].ipv4.ip packetDropUndefined:vector(packetBytes):endtime nan
scalar SingleCell.ue[4].ipv4.arp arpRequestSent:vector(packetBytes):count 0
scalar SingleCell.ue[4].ipv4.arp arpRequestSent:vector(packetBytes):sum 0
scalar SingleCell.ue[4].ipv4.arp arpRequestSent:vector(packetBytes):sumweights 0
scalar SingleCell.ue[4].ipv4.arp arpRequestSent:vector(packetBytes):mean -nan
scalar SingleCell.ue[4].ipv4.arp arpRequestSent:vector(packetBytes):stddev nan
scalar SingleCell.ue[4].ipv4.arp arpRequestSent:vector(packetBytes):min inf
scalar SingleCell.ue[4].ipv4.arp arpRequestSent:vector(packetBytes):max -inf
scalar SingleCell.ue[4].ipv4.arp arpRequestSent:vector(packetBytes):starttime nan
scalar SingleCell.ue[4].ipv4.arp arpRequestSent:vector(packetBytes):endtime nan
scalar SingleCell.ue[4].ipv4.arp arpReplySent:vector(packetBytes):count 0
scalar SingleCell.ue[4].ipv4.arp arpReplySent:vector(packetBytes):sum 0
scalar SingleCell.ue[4].ipv4.arp arpReplySent:vector(packetBytes):sumweights 0
scalar SingleCell.ue[4].ipv4.arp arpReplySent:vector(packetBytes):mean -nan
scalar SingleCell.ue[4].ipv4.arp arpReplySent:vector(packetBytes):stddev nan
scalar SingleCell.ue[4].ipv4.arp arpReplySent:vector(packetBytes):min inf
scalar SingleCell.ue[4].ipv4.arp arpReplySent:vector(packetBytes):max -inf
scalar SingleCell.ue[4].ipv4.arp arpReplySent:vector(packetBytes):starttime nan
scalar SingleCell.ue[4].ipv4.arp arpReplySent:vector(packetBytes):endtime nan
scalar SingleCell.ue[4].udp packetSent:vector(packetBytes):count 0
scalar SingleCell.ue[4].udp packetSent:vector(packetBytes):sum 0
scalar SingleCell.ue[4].udp packetSent:vector(packetBytes):sumweights 0
scalar SingleCell.ue[4].udp packetSent:vector(packetBytes):mean -nan
scalar SingleCell.ue[4].udp packetSent:vector(packetBytes):stddev nan
scalar SingleCell.ue[4].udp packetSent:vector(packetBytes):min inf
scalar SingleCell.ue[4].udp packetSent:vector(packetBytes):max -inf
scalar SingleCell.ue[4].udp packetSent:vector(packetBytes):starttime nan
scalar SingleCell.ue[4].udp packetSent:vector(packetBytes):endtime nan
scalar SingleCell.ue[4].udp packetReceived:vector(packetBytes):count 0
scalar SingleCell.ue[4].udp packetReceived:vector(packetBytes):sum 0
scalar SingleCell.ue[4].udp packetReceived:vector(packetBytes):sumweights 0
scalar SingleCell.ue[4].udp packetReceived:vector(packetBytes):mean -nan
scalar SingleCell.ue[4].udp packetReceived:vector(packetBytes):stddev nan
scalar SingleCell.ue[4].udp packetReceived:vector(packetBytes):min inf
scalar SingleCell.ue[4].udp packetReceived:vector(packetBytes):max -inf
scalar SingleCell.ue[4].udp packetReceived:vector(packetBytes):starttime nan
scalar SingleCell.ue[4].udp packetReceived:vector(packetBytes):endtime nan
scalar SingleCell.ue[4].udp passedUpPk:vector(count):count 0
scalar SingleCell.ue[4].udp passedUpPk:vector(count):sum 0
scalar SingleCell.ue[4].udp passedUpPk:vector(count):sumweights 0
scalar SingleCell.ue[4].udp passedUpPk:vector(count):mean -nan
scalar SingleCell.ue[4].udp passedUpPk:vector(count):stddev nan
scalar SingleCell.ue[4].udp passedUpPk:vector(count):min inf
scalar SingleCell.ue[4].udp passedUpPk:vector(count):max -inf
scalar SingleCell.ue[4].udp passedUpPk:vector(count):starttime nan
scalar SingleCell.ue[4].udp passedUpPk:vector(count):endtime nan
scalar SingleCell.ue[4].udp droppedPkWrongPort:vector(count):count 0
scalar SingleCell.ue[4].udp droppedPkWrongPort:vector(count):sum 0
scalar SingleCell.ue[4].udp droppedPkWrongPort:vector(count):sumweights 0
scalar SingleCell.ue[4].udp droppedPkWrongPort:vector(count):mean -nan
scalar SingleCell.ue[4].udp droppedPkWrongPort:vector(count):stddev nan
scalar SingleCell.ue[4].udp droppedPkWrongPort:vector(count):min inf
scalar SingleCell.ue[4].udp droppedPkWrongPort:vector(count):max -inf
scalar SingleCell.ue[4].udp droppedPkWrongPort:vector(count):starttime nan
scalar SingleCell.ue[4].udp droppedPkWrongPort:vector(count):endtime nan
scalar SingleCell.ue[4].udp droppedPkBadChecksum:vector(count):count 0
scalar SingleCell.ue[4].udp droppedPkBadChecksum:vector(count):sum 0
scalar SingleCell.ue[4].udp droppedPkBadChecksum:vector(count):sumweights 0
scalar SingleCell.ue[4].udp droppedPkBadChecksum:vector(count):mean -nan
scalar SingleCell.ue[4].udp droppedPkBadChecksum:vector(count):stddev nan
scalar SingleCell.ue[4].udp droppedPkBadChecksum:vector(count):min inf
scalar SingleCell.ue[4].udp droppedPkBadChecksum:vector(count):max -inf
scalar SingleCell.ue[4].udp droppedPkBadChecksum:vector(count):starttime nan
scalar SingleCell.ue[4].udp droppedPkBadChecksum:vector(count):endtime nan
scalar SingleCell.ue[4].app[0] voIPGeneratedThroughput:vector:count 0
scalar SingleCell.ue[4].app[0] voIPGeneratedThroughput:vector:sum 0
scalar SingleCell.ue[4].app[0] voIPGeneratedThroughput:vector:sumweights 0
scalar SingleCell.ue[4].app[0] voIPGeneratedThroughput:vector:mean -nan
scalar SingleCell.ue[4].app[0] voIPGeneratedThroughput:vector:stddev nan
scalar SingleCell.ue[4].app[0] voIPGeneratedThroughput:vector:min inf
scalar SingleCell.ue[4].app[0] voIPGeneratedThroughput:vector:max -inf
scalar SingleCell.ue[4].app[0] voIPGeneratedThroughput:vector:starttime nan
scalar SingleCell.ue[4].app[0] voIPGeneratedThroughput:vector:endtime nan

