version 3
run CBR-UL-0-20260712-14:07:51-21606
attr configname CBR-UL
attr datetime 20260712-14:07:51
attr datetimef 20260712-140751
attr experiment CBR-UL
attr inifile omnetpp.ini
attr iterationvars "$u=0, $numRbs=50, $numUEs=1"
attr iterationvarsd u=0/numRbs=50/numUEs=1
attr iterationvarsf u=0,numRbs=50,numUEs=1-
attr measurement "$u=0, $numRbs=50, $numUEs=1"
attr network simu5g.simulations.nr.networks.MultiCell_Standalone
attr processid 21606
attr repetition 0
attr replication #0
attr resultdir results
attr runnumber 0
attr seedset 0
itervar numRbs 50
itervar numUEs 1
itervar u 0
config **.param-recording false
config image-path /home/andras/projects/Simu5G-fork/simu5g-fork/images
config output-scalar-file results/omnetpp.ini-CBR-UL-#0.sca
config output-scalar-precision 17
config output-vector-file results/omnetpp.ini-CBR-UL-#0.vec
config output-vector-precision 17
config record-eventlog false
config sim-time-limit 20s
config extends MultiCell
config description "CBR UL traffic from UEs to remote server"
config *.ue[*].numApps 1
config *.server.numApps 1
config *.server.app[*].typename CbrReceiver
config *.server.app[*].localPort "3000 + ancestorIndex(0)"
config *.ue[*].app[*].typename CbrSender
config *.ue[*].app[*].packetSize 100B
config *.ue[*].app[*].samplingTime 0.02s
config *.ue[*].app[*].destAddress "\"server\""
config *.ue[*].app[*].destPort "3000 + ancestorIndex(1)"
config *.ue[*].app[*].localPort 3088+ancestorIndex(0)
config *.ue[*].app[*].startTime uniform(0s,0.02s)
config *.ue[*].app[*].finishTime uniform(19.9s,19.92s)
config network simu5g.simulations.nr.networks.MultiCell_Standalone
config sim-time-limit 20s
config description "Base configuration, do not run this config!"
config **.mobility.constraintAreaMaxX 1000m
config **.mobility.constraintAreaMaxY 750m
config **.mobility.constraintAreaMinX 0m
config **.mobility.constraintAreaMinY 250m
config **.mobility.constraintAreaMinZ 0m
config **.mobility.constraintAreaMaxZ 0m
config **.mobility.initFromDisplayString false
config *.carrierAggregation.numComponentCarriers 1
config *.carrierAggregation.componentCarrier[0].numerologyIndex 0
config *.carrierAggregation.componentCarrier[0].carrierFrequency 2GHz
config *.carrierAggregation.componentCarrier[0].numBands 50
config *.gnb*.cellularNic.numCarriers 1
config *.gnb*.cellularNic.channelModel[0].componentCarrierModule "\"carrierAggregation.componentCarrier[0]\""
config *.ue[*].cellularNic.numCarriers 1
config *.ue[*].cellularNic.nrChannelModel[0].componentCarrierModule "\"carrierAggregation.componentCarrier[0]\""
config *.gnb1.mobility.initialX 250m
config *.gnb1.mobility.initialY 500m
config *.gnb2.mobility.initialX 750m
config *.gnb2.mobility.initialY 500m
config *.gnb*.numX2Apps 1
config *.gnb*.x2App[*].server.localPort "5000 + ancestorIndex(1)"
config *.gnb1.x2App[0].client.connectAddress "\"gnb2%x2ppp0\""
config *.gnb2.x2App[0].client.connectAddress "\"gnb1%x2ppp0\""
config *.numUe 1
config *.ue[*].servingNodeId 0
config *.ue[*].nrServingNodeId 1
config **.dynamicCellAssociation true
config **.enableHandover true
config *.ue[*].mobility.typename LinearMobility
config *.ue[*].mobility.initialX uniform(0m,1000m)
config *.ue[*].mobility.initialY uniform(250m,750m)
config *.ue[*].mobility.speed uniform(3mps,13.89mps)
config **.routingRecorder.enabled false
config output-scalar-file "results/CBR-UL/$u=0, $numRbs=50, $numUEs=1-0.sca"
config output-vector-file "results/CBR-UL/$u=0, $numRbs=50, $numUEs=1-0.vec"
config seed-set 0
config **.sctp.**.scalar-recording false
config **.sctp.**.vector-recording false
config **.vector-recording true
config **.sctp.nagleEnabled false
config **.sctp.enableHeartbeats false
config **.downlinkInterference true
config **.uplinkInterference true
config **.ueTxPower 26dBm
config **.eNodeBTxPower 46dBm
config **.targetBler 0.01
config **.blerShift 5
config **.fbPeriod 40tti
config *.configurator.config "xmldoc(\"./demo.xml\")"

scalar MultiCell_Standalone.gnb1.x2App[0].client ums 1452
scalar MultiCell_Standalone.gnb2.x2App[0].client ums 1452
scalar MultiCell_Standalone.server.lo[0].lo rcvdPkFromHl:count 0
scalar MultiCell_Standalone.server.lo[0].lo rcvdPkFromHl:sum(packetBytes) 0
scalar MultiCell_Standalone.server.lo[0].lo passedUpPk:count 0
scalar MultiCell_Standalone.server.lo[0].lo passedUpPk:sum(packetBytes) 0
scalar MultiCell_Standalone.server.lo[0] packetDropInterfaceDown:count 0
scalar MultiCell_Standalone.server.lo[0] packetDropInterfaceDown:sum(packetBytes) 0
scalar MultiCell_Standalone.server.lo[0] packetDropNoCarrier:count 0
scalar MultiCell_Standalone.server.lo[0] packetDropNoCarrier:sum(packetBytes) 0
scalar MultiCell_Standalone.server.ppp[0].queue queueLength:last 0
scalar MultiCell_Standalone.server.ppp[0].queue queueLength:max 0
scalar MultiCell_Standalone.server.ppp[0].queue queueLength:timeavg 0
scalar MultiCell_Standalone.server.ppp[0].queue queueBitLength:last 0
scalar MultiCell_Standalone.server.ppp[0].queue queueBitLength:max 0
scalar MultiCell_Standalone.server.ppp[0].queue queueBitLength:timeavg 0
scalar MultiCell_Standalone.server.ppp[0].queue outgoingPackets:count 0
scalar MultiCell_Standalone.server.ppp[0].queue outgoingPacketLengths:sum 0
scalar MultiCell_Standalone.server.ppp[0].queue incomingPackets:count 0
scalar MultiCell_Standalone.server.ppp[0].queue incomingPacketLengths:sum 0
scalar MultiCell_Standalone.server.ppp[0].queue droppedPacketsQueueOverflow:count 0
scalar MultiCell_Standalone.server.ppp[0].queue droppedPacketLengthsQueueOverflow:sum 0
scalar MultiCell_Standalone.server.ppp[0].ppp transmissionState:timeavg 0
scalar MultiCell_Standalone.server.ppp[0].ppp rxPkOk:count 995
scalar MultiCell_Standalone.server.ppp[0].ppp rxPkOk:sum(packetBytes) 134325
scalar MultiCell_Standalone.server.ppp[0].ppp txPk:count 0
scalar MultiCell_Standalone.server.ppp[0].ppp txPk:sum(packetBytes) 0
scalar MultiCell_Standalone.server.ppp[0].ppp rcvdPkFromHl:count 0
scalar MultiCell_Standalone.server.ppp[0].ppp rcvdPkFromHl:sum(packetBytes) 0
scalar MultiCell_Standalone.server.ppp[0].ppp passedUpPk:count 995
scalar MultiCell_Standalone.server.ppp[0].ppp passedUpPk:sum(packetBytes) 127360
scalar MultiCell_Standalone.server.ppp[0].ppp packetDropIncorrectlyReceived:count 0
scalar MultiCell_Standalone.server.ppp[0].ppp packetDropIncorrectlyReceived:sum(packetBytes) 0
scalar MultiCell_Standalone.server.ppp[0].ppp packetDropInterfaceDown:count 0
scalar MultiCell_Standalone.server.ppp[0].ppp packetDropInterfaceDown:sum(packetBytes) 0
scalar MultiCell_Standalone.server.ppp[0] packetDropInterfaceDown:count 0
scalar MultiCell_Standalone.server.ppp[0] packetDropInterfaceDown:sum(packetBytes) 0
scalar MultiCell_Standalone.server.ppp[0] packetDropNoCarrier:count 0
scalar MultiCell_Standalone.server.ppp[0] packetDropNoCarrier:sum(packetBytes) 0
scalar MultiCell_Standalone.server.ipv4.ip packetDropAddressResolutionFailed:count 0
scalar MultiCell_Standalone.server.ipv4.ip packetDropAddressResolutionFailed:sum(packetBytes) 0
scalar MultiCell_Standalone.server.ipv4.ip packetDropHopLimitReached:count 0
scalar MultiCell_Standalone.server.ipv4.ip packetDropHopLimitReached:sum(packetBytes) 0
scalar MultiCell_Standalone.server.ipv4.ip packetDropForwardingDisabled:count 0
scalar MultiCell_Standalone.server.ipv4.ip packetDropForwardingDisabled:sum(packetBytes) 0
scalar MultiCell_Standalone.server.ipv4.ip packetDropNoInterfaceFound:count 0
scalar MultiCell_Standalone.server.ipv4.ip packetDropNoInterfaceFound:sum(packetBytes) 0
scalar MultiCell_Standalone.server.ipv4.ip packetDropNoRouteFound:count 0
scalar MultiCell_Standalone.server.ipv4.ip packetDropNoRouteFound:sum(packetBytes) 0
scalar MultiCell_Standalone.server.ipv4.ip packetDropUndefined:count 0
scalar MultiCell_Standalone.server.ipv4.ip packetDropUndefined:sum(packetBytes) 0
scalar MultiCell_Standalone.server.ipv4.arp arpResolutionFailed:count 0
scalar MultiCell_Standalone.server.ipv4.arp arpResolutionCompleted:count 0
scalar MultiCell_Standalone.server.ipv4.arp arpResolutionInitiated:count 0
scalar MultiCell_Standalone.server.ipv4.arp arpReplySent:count 0
scalar MultiCell_Standalone.server.ipv4.arp arpReplySent:sum(packetBytes) 0
scalar MultiCell_Standalone.server.ipv4.arp arpRequestSent:count 0
scalar MultiCell_Standalone.server.ipv4.arp arpRequestSent:sum(packetBytes) 0
scalar MultiCell_Standalone.server.udp packetReceived:count 995
scalar MultiCell_Standalone.server.udp packetReceived:sum(packetBytes) 107460
scalar MultiCell_Standalone.server.udp packetSent:count 0
scalar MultiCell_Standalone.server.udp packetSent:sum(packetBytes) 0
scalar MultiCell_Standalone.server.udp passedUpPk:count 995
scalar MultiCell_Standalone.server.udp droppedPkWrongPort:count 0
scalar MultiCell_Standalone.server.udp droppedPkBadChecksum:count 0
scalar MultiCell_Standalone.server.app[0] cbrReceivedBytes:mean 100
scalar MultiCell_Standalone.server.app[0] cbrReceivedBytes:sum 99500
scalar MultiCell_Standalone.server.app[0] cbrReceivedThroughput:simu5g_rateavg 4975
scalar MultiCell_Standalone.server.app[0] cbrJitter:mean -nan
scalar MultiCell_Standalone.server.app[0] cbrFrameDelay:mean 0.021419579463396891
scalar MultiCell_Standalone.server.app[0] cbrFrameLoss:mean -0.001006036217303885
scalar MultiCell_Standalone.router.lo[0].lo rcvdPkFromHl:count 0
scalar MultiCell_Standalone.router.lo[0].lo rcvdPkFromHl:sum(packetBytes) 0
scalar MultiCell_Standalone.router.lo[0].lo passedUpPk:count 0
scalar MultiCell_Standalone.router.lo[0].lo passedUpPk:sum(packetBytes) 0
scalar MultiCell_Standalone.router.lo[0] packetDropInterfaceDown:count 0
scalar MultiCell_Standalone.router.lo[0] packetDropInterfaceDown:sum(packetBytes) 0
scalar MultiCell_Standalone.router.lo[0] packetDropNoCarrier:count 0
scalar MultiCell_Standalone.router.lo[0] packetDropNoCarrier:sum(packetBytes) 0
scalar MultiCell_Standalone.router.ppp[0].queue queueLength:last 0
scalar MultiCell_Standalone.router.ppp[0].queue queueLength:max 0
scalar MultiCell_Standalone.router.ppp[0].queue queueLength:timeavg 0
scalar MultiCell_Standalone.router.ppp[0].queue queueBitLength:last 0
scalar MultiCell_Standalone.router.ppp[0].queue queueBitLength:max 0
scalar MultiCell_Standalone.router.ppp[0].queue queueBitLength:timeavg 0
scalar MultiCell_Standalone.router.ppp[0].queue outgoingPackets:count 995
scalar MultiCell_Standalone.router.ppp[0].queue outgoingPacketLengths:sum 1018880
scalar MultiCell_Standalone.router.ppp[0].queue incomingPackets:count 995
scalar MultiCell_Standalone.router.ppp[0].queue incomingPacketLengths:sum 1018880
scalar MultiCell_Standalone.router.ppp[0].queue droppedPacketsQueueOverflow:count 0
scalar MultiCell_Standalone.router.ppp[0].queue droppedPacketLengthsQueueOverflow:sum 0
scalar MultiCell_Standalone.router.ppp[0].ppp transmissionState:timeavg 5.3730000000001288e-06
scalar MultiCell_Standalone.router.ppp[0].ppp rxPkOk:count 0
scalar MultiCell_Standalone.router.ppp[0].ppp rxPkOk:sum(packetBytes) 0
scalar MultiCell_Standalone.router.ppp[0].ppp txPk:count 995
scalar MultiCell_Standalone.router.ppp[0].ppp txPk:sum(packetBytes) 134325
scalar MultiCell_Standalone.router.ppp[0].ppp rcvdPkFromHl:count 995
scalar MultiCell_Standalone.router.ppp[0].ppp rcvdPkFromHl:sum(packetBytes) 127360
scalar MultiCell_Standalone.router.ppp[0].ppp passedUpPk:count 0
scalar MultiCell_Standalone.router.ppp[0].ppp passedUpPk:sum(packetBytes) 0
scalar MultiCell_Standalone.router.ppp[0].ppp packetDropIncorrectlyReceived:count 0
scalar MultiCell_Standalone.router.ppp[0].ppp packetDropIncorrectlyReceived:sum(packetBytes) 0
scalar MultiCell_Standalone.router.ppp[0].ppp packetDropInterfaceDown:count 0
scalar MultiCell_Standalone.router.ppp[0].ppp packetDropInterfaceDown:sum(packetBytes) 0
scalar MultiCell_Standalone.router.ppp[0] packetDropInterfaceDown:count 0
scalar MultiCell_Standalone.router.ppp[0] packetDropInterfaceDown:sum(packetBytes) 0
scalar MultiCell_Standalone.router.ppp[0] packetDropNoCarrier:count 0
scalar MultiCell_Standalone.router.ppp[0] packetDropNoCarrier:sum(packetBytes) 0
scalar MultiCell_Standalone.router.ppp[1].queue queueLength:last 0
scalar MultiCell_Standalone.router.ppp[1].queue queueLength:max 0
scalar MultiCell_Standalone.router.ppp[1].queue queueLength:timeavg 0
scalar MultiCell_Standalone.router.ppp[1].queue queueBitLength:last 0
scalar MultiCell_Standalone.router.ppp[1].queue queueBitLength:max 0
scalar MultiCell_Standalone.router.ppp[1].queue queueBitLength:timeavg 0
scalar MultiCell_Standalone.router.ppp[1].queue outgoingPackets:count 0
scalar MultiCell_Standalone.router.ppp[1].queue outgoingPacketLengths:sum 0
scalar MultiCell_Standalone.router.ppp[1].queue incomingPackets:count 0
scalar MultiCell_Standalone.router.ppp[1].queue incomingPacketLengths:sum 0
scalar MultiCell_Standalone.router.ppp[1].queue droppedPacketsQueueOverflow:count 0
scalar MultiCell_Standalone.router.ppp[1].queue droppedPacketLengthsQueueOverflow:sum 0
scalar MultiCell_Standalone.router.ppp[1].ppp transmissionState:timeavg 0
scalar MultiCell_Standalone.router.ppp[1].ppp rxPkOk:count 995
scalar MultiCell_Standalone.router.ppp[1].ppp rxPkOk:sum(packetBytes) 134325
scalar MultiCell_Standalone.router.ppp[1].ppp txPk:count 0
scalar MultiCell_Standalone.router.ppp[1].ppp txPk:sum(packetBytes) 0
scalar MultiCell_Standalone.router.ppp[1].ppp rcvdPkFromHl:count 0
scalar MultiCell_Standalone.router.ppp[1].ppp rcvdPkFromHl:sum(packetBytes) 0
scalar MultiCell_Standalone.router.ppp[1].ppp passedUpPk:count 995
scalar MultiCell_Standalone.router.ppp[1].ppp passedUpPk:sum(packetBytes) 127360
scalar MultiCell_Standalone.router.ppp[1].ppp packetDropIncorrectlyReceived:count 0
scalar MultiCell_Standalone.router.ppp[1].ppp packetDropIncorrectlyReceived:sum(packetBytes) 0
scalar MultiCell_Standalone.router.ppp[1].ppp packetDropInterfaceDown:count 0
scalar MultiCell_Standalone.router.ppp[1].ppp packetDropInterfaceDown:sum(packetBytes) 0
scalar MultiCell_Standalone.router.ppp[1] packetDropInterfaceDown:count 0
scalar MultiCell_Standalone.router.ppp[1] packetDropInterfaceDown:sum(packetBytes) 0
scalar MultiCell_Standalone.router.ppp[1] packetDropNoCarrier:count 0
scalar MultiCell_Standalone.router.ppp[1] packetDropNoCarrier:sum(packetBytes) 0
scalar MultiCell_Standalone.router.ipv4.ip packetDropAddressResolutionFailed:count 0
scalar MultiCell_Standalone.router.ipv4.ip packetDropAddressResolutionFailed:sum(packetBytes) 0
scalar MultiCell_Standalone.router.ipv4.ip packetDropHopLimitReached:count 0
scalar MultiCell_Standalone.router.ipv4.ip packetDropHopLimitReached:sum(packetBytes) 0
scalar MultiCell_Standalone.router.ipv4.ip packetDropForwardingDisabled:count 0
scalar MultiCell_Standalone.router.ipv4.ip packetDropForwardingDisabled:sum(packetBytes) 0
scalar MultiCell_Standalone.router.ipv4.ip packetDropNoInterfaceFound:count 0
scalar MultiCell_Standalone.router.ipv4.ip packetDropNoInterfaceFound:sum(packetBytes) 0
scalar MultiCell_Standalone.router.ipv4.ip packetDropNoRouteFound:count 0
scalar MultiCell_Standalone.router.ipv4.ip packetDropNoRouteFound:sum(packetBytes) 0
scalar MultiCell_Standalone.router.ipv4.ip packetDropUndefined:count 0
scalar MultiCell_Standalone.router.ipv4.ip packetDropUndefined:sum(packetBytes) 0
scalar MultiCell_Standalone.router.ipv4.arp arpResolutionFailed:count 0
scalar MultiCell_Standalone.router.ipv4.arp arpResolutionCompleted:count 0
scalar MultiCell_Standalone.router.ipv4.arp arpResolutionInitiated:count 0
scalar MultiCell_Standalone.router.ipv4.arp arpReplySent:count 0
scalar MultiCell_Standalone.router.ipv4.arp arpReplySent:sum(packetBytes) 0
scalar MultiCell_Standalone.router.ipv4.arp arpRequestSent:count 0
scalar MultiCell_Standalone.router.ipv4.arp arpRequestSent:sum(packetBytes) 0
scalar MultiCell_Standalone.upf.lo[0].lo rcvdPkFromHl:count 0
scalar MultiCell_Standalone.upf.lo[0].lo rcvdPkFromHl:sum(packetBytes) 0
scalar MultiCell_Standalone.upf.lo[0].lo passedUpPk:count 0
scalar MultiCell_Standalone.upf.lo[0].lo passedUpPk:sum(packetBytes) 0
scalar MultiCell_Standalone.upf.lo[0] packetDropInterfaceDown:count 0
scalar MultiCell_Standalone.upf.lo[0] packetDropInterfaceDown:sum(packetBytes) 0
scalar MultiCell_Standalone.upf.lo[0] packetDropNoCarrier:count 0
scalar MultiCell_Standalone.upf.lo[0] packetDropNoCarrier:sum(packetBytes) 0
scalar MultiCell_Standalone.upf.ppp[0].queue queueLength:last 0
scalar MultiCell_Standalone.upf.ppp[0].queue queueLength:max 0
scalar MultiCell_Standalone.upf.ppp[0].queue queueLength:timeavg 0
scalar MultiCell_Standalone.upf.ppp[0].queue queueBitLength:last 0
scalar MultiCell_Standalone.upf.ppp[0].queue queueBitLength:max 0
scalar MultiCell_Standalone.upf.ppp[0].queue queueBitLength:timeavg 0
scalar MultiCell_Standalone.upf.ppp[0].queue outgoingPackets:count 0
scalar MultiCell_Standalone.upf.ppp[0].queue outgoingPacketLengths:sum 0
scalar MultiCell_Standalone.upf.ppp[0].queue incomingPackets:count 0
scalar MultiCell_Standalone.upf.ppp[0].queue incomingPacketLengths:sum 0
scalar MultiCell_Standalone.upf.ppp[0].queue droppedPacketsQueueOverflow:count 0
scalar MultiCell_Standalone.upf.ppp[0].queue droppedPacketLengthsQueueOverflow:sum 0
scalar MultiCell_Standalone.upf.ppp[0].ppp transmissionState:timeavg 0
scalar MultiCell_Standalone.upf.ppp[0].ppp rxPkOk:count 995
scalar MultiCell_Standalone.upf.ppp[0].ppp rxPkOk:sum(packetBytes) 170145
scalar MultiCell_Standalone.upf.ppp[0].ppp txPk:count 0
scalar MultiCell_Standalone.upf.ppp[0].ppp txPk:sum(packetBytes) 0
scalar MultiCell_Standalone.upf.ppp[0].ppp rcvdPkFromHl:count 0
scalar MultiCell_Standalone.upf.ppp[0].ppp rcvdPkFromHl:sum(packetBytes) 0
scalar MultiCell_Standalone.upf.ppp[0].ppp passedUpPk:count 995
scalar MultiCell_Standalone.upf.ppp[0].ppp passedUpPk:sum(packetBytes) 163180
scalar MultiCell_Standalone.upf.ppp[0].ppp packetDropIncorrectlyReceived:count 0
scalar MultiCell_Standalone.upf.ppp[0].ppp packetDropIncorrectlyReceived:sum(packetBytes) 0
scalar MultiCell_Standalone.upf.ppp[0].ppp packetDropInterfaceDown:count 0
scalar MultiCell_Standalone.upf.ppp[0].ppp packetDropInterfaceDown:sum(packetBytes) 0
scalar MultiCell_Standalone.upf.ppp[0] packetDropInterfaceDown:count 0
scalar MultiCell_Standalone.upf.ppp[0] packetDropInterfaceDown:sum(packetBytes) 0
scalar MultiCell_Standalone.upf.ppp[0] packetDropNoCarrier:count 0
scalar MultiCell_Standalone.upf.ppp[0] packetDropNoCarrier:sum(packetBytes) 0
scalar MultiCell_Standalone.upf.ipv4.ip packetDropAddressResolutionFailed:count 0
scalar MultiCell_Standalone.upf.ipv4.ip packetDropAddressResolutionFailed:sum(packetBytes) 0
scalar MultiCell_Standalone.upf.ipv4.ip packetDropHopLimitReached:count 0
scalar MultiCell_Standalone.upf.ipv4.ip packetDropHopLimitReached:sum(packetBytes) 0
scalar MultiCell_Standalone.upf.ipv4.ip packetDropForwardingDisabled:count 0
scalar MultiCell_Standalone.upf.ipv4.ip packetDropForwardingDisabled:sum(packetBytes) 0
scalar MultiCell_Standalone.upf.ipv4.ip packetDropNoInterfaceFound:count 0
scalar MultiCell_Standalone.upf.ipv4.ip packetDropNoInterfaceFound:sum(packetBytes) 0
scalar MultiCell_Standalone.upf.ipv4.ip packetDropNoRouteFound:count 0
scalar MultiCell_Standalone.upf.ipv4.ip packetDropNoRouteFound:sum(packetBytes) 0
scalar MultiCell_Standalone.upf.ipv4.ip packetDropUndefined:count 0
scalar MultiCell_Standalone.upf.ipv4.ip packetDropUndefined:sum(packetBytes) 0
scalar MultiCell_Standalone.upf.ipv4.arp arpResolutionFailed:count 0
scalar MultiCell_Standalone.upf.ipv4.arp arpResolutionCompleted:count 0
scalar MultiCell_Standalone.upf.ipv4.arp arpResolutionInitiated:count 0
scalar MultiCell_Standalone.upf.ipv4.arp arpReplySent:count 0
scalar MultiCell_Standalone.upf.ipv4.arp arpReplySent:sum(packetBytes) 0
scalar MultiCell_Standalone.upf.ipv4.arp arpRequestSent:count 0
scalar MultiCell_Standalone.upf.ipv4.arp arpRequestSent:sum(packetBytes) 0
scalar MultiCell_Standalone.upf.pppIf.queue queueLength:last 0
scalar MultiCell_Standalone.upf.pppIf.queue queueLength:max 0
scalar MultiCell_Standalone.upf.pppIf.queue queueLength:timeavg 0
scalar MultiCell_Standalone.upf.pppIf.queue queueBitLength:last 0
scalar MultiCell_Standalone.upf.pppIf.queue queueBitLength:max 0
scalar MultiCell_Standalone.upf.pppIf.queue queueBitLength:timeavg 0
scalar MultiCell_Standalone.upf.pppIf.queue outgoingPackets:count 995
scalar MultiCell_Standalone.upf.pppIf.queue outgoingPacketLengths:sum 1018880
scalar MultiCell_Standalone.upf.pppIf.queue incomingPackets:count 995
scalar MultiCell_Standalone.upf.pppIf.queue incomingPacketLengths:sum 1018880
scalar MultiCell_Standalone.upf.pppIf.queue droppedPacketsQueueOverflow:count 0
scalar MultiCell_Standalone.upf.pppIf.queue droppedPacketLengthsQueueOverflow:sum 0
scalar MultiCell_Standalone.upf.pppIf.ppp transmissionState:timeavg 5.3730000000001288e-06
scalar MultiCell_Standalone.upf.pppIf.ppp rxPkOk:count 0
scalar MultiCell_Standalone.upf.pppIf.ppp rxPkOk:sum(packetBytes) 0
scalar MultiCell_Standalone.upf.pppIf.ppp txPk:count 995
scalar MultiCell_Standalone.upf.pppIf.ppp txPk:sum(packetBytes) 134325
scalar MultiCell_Standalone.upf.pppIf.ppp rcvdPkFromHl:count 995
scalar MultiCell_Standalone.upf.pppIf.ppp rcvdPkFromHl:sum(packetBytes) 127360
scalar MultiCell_Standalone.upf.pppIf.ppp passedUpPk:count 0
scalar MultiCell_Standalone.upf.pppIf.ppp passedUpPk:sum(packetBytes) 0
scalar MultiCell_Standalone.upf.pppIf.ppp packetDropIncorrectlyReceived:count 0
scalar MultiCell_Standalone.upf.pppIf.ppp packetDropIncorrectlyReceived:sum(packetBytes) 0
scalar MultiCell_Standalone.upf.pppIf.ppp packetDropInterfaceDown:count 0
scalar MultiCell_Standalone.upf.pppIf.ppp packetDropInterfaceDown:sum(packetBytes) 0
scalar MultiCell_Standalone.upf.pppIf packetDropInterfaceDown:count 0
scalar MultiCell_Standalone.upf.pppIf packetDropInterfaceDown:sum(packetBytes) 0
scalar MultiCell_Standalone.upf.pppIf packetDropNoCarrier:count 0
scalar MultiCell_Standalone.upf.pppIf packetDropNoCarrier:sum(packetBytes) 0
scalar MultiCell_Standalone.upf.udp packetReceived:count 995
scalar MultiCell_Standalone.upf.udp packetReceived:sum(packetBytes) 143280
scalar MultiCell_Standalone.upf.udp packetSent:count 0
scalar MultiCell_Standalone.upf.udp packetSent:sum(packetBytes) 0
scalar MultiCell_Standalone.upf.udp passedUpPk:count 995
scalar MultiCell_Standalone.upf.udp droppedPkWrongPort:count 0
scalar MultiCell_Standalone.upf.udp droppedPkBadChecksum:count 0
scalar MultiCell_Standalone.iUpf.lo[0].lo rcvdPkFromHl:count 0
scalar MultiCell_Standalone.iUpf.lo[0].lo rcvdPkFromHl:sum(packetBytes) 0
scalar MultiCell_Standalone.iUpf.lo[0].lo passedUpPk:count 0
scalar MultiCell_Standalone.iUpf.lo[0].lo passedUpPk:sum(packetBytes) 0
scalar MultiCell_Standalone.iUpf.lo[0] packetDropInterfaceDown:count 0
scalar MultiCell_Standalone.iUpf.lo[0] packetDropInterfaceDown:sum(packetBytes) 0
scalar MultiCell_Standalone.iUpf.lo[0] packetDropNoCarrier:count 0
scalar MultiCell_Standalone.iUpf.lo[0] packetDropNoCarrier:sum(packetBytes) 0
scalar MultiCell_Standalone.iUpf.ppp[0].queue queueLength:last 0
scalar MultiCell_Standalone.iUpf.ppp[0].queue queueLength:max 0
scalar MultiCell_Standalone.iUpf.ppp[0].queue queueLength:timeavg 0
scalar MultiCell_Standalone.iUpf.ppp[0].queue queueBitLength:last 0
scalar MultiCell_Standalone.iUpf.ppp[0].queue queueBitLength:max 0
scalar MultiCell_Standalone.iUpf.ppp[0].queue queueBitLength:timeavg 0
scalar MultiCell_Standalone.iUpf.ppp[0].queue outgoingPackets:count 995
scalar MultiCell_Standalone.iUpf.ppp[0].queue outgoingPacketLengths:sum 1305440
scalar MultiCell_Standalone.iUpf.ppp[0].queue incomingPackets:count 995
scalar MultiCell_Standalone.iUpf.ppp[0].queue incomingPacketLengths:sum 1305440
scalar MultiCell_Standalone.iUpf.ppp[0].queue droppedPacketsQueueOverflow:count 0
scalar MultiCell_Standalone.iUpf.ppp[0].queue droppedPacketLengthsQueueOverflow:sum 0
scalar MultiCell_Standalone.iUpf.ppp[0].ppp transmissionState:timeavg 6.8058000000000611e-06
scalar MultiCell_Standalone.iUpf.ppp[0].ppp rxPkOk:count 0
scalar MultiCell_Standalone.iUpf.ppp[0].ppp rxPkOk:sum(packetBytes) 0
scalar MultiCell_Standalone.iUpf.ppp[0].ppp txPk:count 995
scalar MultiCell_Standalone.iUpf.ppp[0].ppp txPk:sum(packetBytes) 170145
scalar MultiCell_Standalone.iUpf.ppp[0].ppp rcvdPkFromHl:count 995
scalar MultiCell_Standalone.iUpf.ppp[0].ppp rcvdPkFromHl:sum(packetBytes) 163180
scalar MultiCell_Standalone.iUpf.ppp[0].ppp passedUpPk:count 0
scalar MultiCell_Standalone.iUpf.ppp[0].ppp passedUpPk:sum(packetBytes) 0
scalar MultiCell_Standalone.iUpf.ppp[0].ppp packetDropIncorrectlyReceived:count 0
scalar MultiCell_Standalone.iUpf.ppp[0].ppp packetDropIncorrectlyReceived:sum(packetBytes) 0
scalar MultiCell_Standalone.iUpf.ppp[0].ppp packetDropInterfaceDown:count 0
scalar MultiCell_Standalone.iUpf.ppp[0].ppp packetDropInterfaceDown:sum(packetBytes) 0
scalar MultiCell_Standalone.iUpf.ppp[0] packetDropInterfaceDown:count 0
scalar MultiCell_Standalone.iUpf.ppp[0] packetDropInterfaceDown:sum(packetBytes) 0
scalar MultiCell_Standalone.iUpf.ppp[0] packetDropNoCarrier:count 0
scalar MultiCell_Standalone.iUpf.ppp[0] packetDropNoCarrier:sum(packetBytes) 0
scalar MultiCell_Standalone.iUpf.ppp[1].queue queueLength:last 0
scalar MultiCell_Standalone.iUpf.ppp[1].queue queueLength:max 0
scalar MultiCell_Standalone.iUpf.ppp[1].queue queueLength:timeavg 0
scalar MultiCell_Standalone.iUpf.ppp[1].queue queueBitLength:last 0
scalar MultiCell_Standalone.iUpf.ppp[1].queue queueBitLength:max 0
scalar MultiCell_Standalone.iUpf.ppp[1].queue queueBitLength:timeavg 0
scalar MultiCell_Standalone.iUpf.ppp[1].queue outgoingPackets:count 0
scalar MultiCell_Standalone.iUpf.ppp[1].queue outgoingPacketLengths:sum 0
scalar MultiCell_Standalone.iUpf.ppp[1].queue incomingPackets:count 0
scalar MultiCell_Standalone.iUpf.ppp[1].queue incomingPacketLengths:sum 0
scalar MultiCell_Standalone.iUpf.ppp[1].queue droppedPacketsQueueOverflow:count 0
scalar MultiCell_Standalone.iUpf.ppp[1].queue droppedPacketLengthsQueueOverflow:sum 0
scalar MultiCell_Standalone.iUpf.ppp[1].ppp transmissionState:timeavg 0
scalar MultiCell_Standalone.iUpf.ppp[1].ppp rxPkOk:count 995
scalar MultiCell_Standalone.iUpf.ppp[1].ppp rxPkOk:sum(packetBytes) 170145
scalar MultiCell_Standalone.iUpf.ppp[1].ppp txPk:count 0
scalar MultiCell_Standalone.iUpf.ppp[1].ppp txPk:sum(packetBytes) 0
scalar MultiCell_Standalone.iUpf.ppp[1].ppp rcvdPkFromHl:count 0
scalar MultiCell_Standalone.iUpf.ppp[1].ppp rcvdPkFromHl:sum(packetBytes) 0
scalar MultiCell_Standalone.iUpf.ppp[1].ppp passedUpPk:count 995
scalar MultiCell_Standalone.iUpf.ppp[1].ppp passedUpPk:sum(packetBytes) 163180
scalar MultiCell_Standalone.iUpf.ppp[1].ppp packetDropIncorrectlyReceived:count 0
scalar MultiCell_Standalone.iUpf.ppp[1].ppp packetDropIncorrectlyReceived:sum(packetBytes) 0
scalar MultiCell_Standalone.iUpf.ppp[1].ppp packetDropInterfaceDown:count 0
scalar MultiCell_Standalone.iUpf.ppp[1].ppp packetDropInterfaceDown:sum(packetBytes) 0
scalar MultiCell_Standalone.iUpf.ppp[1] packetDropInterfaceDown:count 0
scalar MultiCell_Standalone.iUpf.ppp[1] packetDropInterfaceDown:sum(packetBytes) 0
scalar MultiCell_Standalone.iUpf.ppp[1] packetDropNoCarrier:count 0
scalar MultiCell_Standalone.iUpf.ppp[1] packetDropNoCarrier:sum(packetBytes) 0
scalar MultiCell_Standalone.iUpf.ppp[2].queue queueLength:last 0
scalar MultiCell_Standalone.iUpf.ppp[2].queue queueLength:max 0
scalar MultiCell_Standalone.iUpf.ppp[2].queue queueLength:timeavg 0
scalar MultiCell_Standalone.iUpf.ppp[2].queue queueBitLength:last 0
scalar MultiCell_Standalone.iUpf.ppp[2].queue queueBitLength:max 0
scalar MultiCell_Standalone.iUpf.ppp[2].queue queueBitLength:timeavg 0
scalar MultiCell_Standalone.iUpf.ppp[2].queue outgoingPackets:count 0
scalar MultiCell_Standalone.iUpf.ppp[2].queue outgoingPacketLengths:sum 0
scalar MultiCell_Standalone.iUpf.ppp[2].queue incomingPackets:count 0
scalar MultiCell_Standalone.iUpf.ppp[2].queue incomingPacketLengths:sum 0
scalar MultiCell_Standalone.iUpf.ppp[2].queue droppedPacketsQueueOverflow:count 0
scalar MultiCell_Standalone.iUpf.ppp[2].queue droppedPacketLengthsQueueOverflow:sum 0
scalar MultiCell_Standalone.iUpf.ppp[2].ppp transmissionState:timeavg 0
scalar MultiCell_Standalone.iUpf.ppp[2].ppp rxPkOk:count 0
scalar MultiCell_Standalone.iUpf.ppp[2].ppp rxPkOk:sum(packetBytes) 0
scalar MultiCell_Standalone.iUpf.ppp[2].ppp txPk:count 0
scalar MultiCell_Standalone.iUpf.ppp[2].ppp txPk:sum(packetBytes) 0
scalar MultiCell_Standalone.iUpf.ppp[2].ppp rcvdPkFromHl:count 0
scalar MultiCell_Standalone.iUpf.ppp[2].ppp rcvdPkFromHl:sum(packetBytes) 0
scalar MultiCell_Standalone.iUpf.ppp[2].ppp passedUpPk:count 0
scalar MultiCell_Standalone.iUpf.ppp[2].ppp passedUpPk:sum(packetBytes) 0
scalar MultiCell_Standalone.iUpf.ppp[2].ppp packetDropIncorrectlyReceived:count 0
scalar MultiCell_Standalone.iUpf.ppp[2].ppp packetDropIncorrectlyReceived:sum(packetBytes) 0
scalar MultiCell_Standalone.iUpf.ppp[2].ppp packetDropInterfaceDown:count 0
scalar MultiCell_Standalone.iUpf.ppp[2].ppp packetDropInterfaceDown:sum(packetBytes) 0
scalar MultiCell_Standalone.iUpf.ppp[2] packetDropInterfaceDown:count 0
scalar MultiCell_Standalone.iUpf.ppp[2] packetDropInterfaceDown:sum(packetBytes) 0
scalar MultiCell_Standalone.iUpf.ppp[2] packetDropNoCarrier:count 0
scalar MultiCell_Standalone.iUpf.ppp[2] packetDropNoCarrier:sum(packetBytes) 0
scalar MultiCell_Standalone.iUpf.ipv4.ip packetDropAddressResolutionFailed:count 0
scalar MultiCell_Standalone.iUpf.ipv4.ip packetDropAddressResolutionFailed:sum(packetBytes) 0
scalar MultiCell_Standalone.iUpf.ipv4.ip packetDropHopLimitReached:count 0
scalar MultiCell_Standalone.iUpf.ipv4.ip packetDropHopLimitReached:sum(packetBytes) 0
scalar MultiCell_Standalone.iUpf.ipv4.ip packetDropForwardingDisabled:count 0
scalar MultiCell_Standalone.iUpf.ipv4.ip packetDropForwardingDisabled:sum(packetBytes) 0
scalar MultiCell_Standalone.iUpf.ipv4.ip packetDropNoInterfaceFound:count 0
scalar MultiCell_Standalone.iUpf.ipv4.ip packetDropNoInterfaceFound:sum(packetBytes) 0
scalar MultiCell_Standalone.iUpf.ipv4.ip packetDropNoRouteFound:count 0
scalar MultiCell_Standalone.iUpf.ipv4.ip packetDropNoRouteFound:sum(packetBytes) 0
scalar MultiCell_Standalone.iUpf.ipv4.ip packetDropUndefined:count 0
scalar MultiCell_Standalone.iUpf.ipv4.ip packetDropUndefined:sum(packetBytes) 0
scalar MultiCell_Standalone.iUpf.ipv4.arp arpResolutionFailed:count 0
scalar MultiCell_Standalone.iUpf.ipv4.arp arpResolutionCompleted:count 0
scalar MultiCell_Standalone.iUpf.ipv4.arp arpResolutionInitiated:count 0
scalar MultiCell_Standalone.iUpf.ipv4.arp arpReplySent:count 0
scalar MultiCell_Standalone.iUpf.ipv4.arp arpReplySent:sum(packetBytes) 0
scalar MultiCell_Standalone.iUpf.ipv4.arp arpRequestSent:count 0
scalar MultiCell_Standalone.iUpf.ipv4.arp arpRequestSent:sum(packetBytes) 0
scalar MultiCell_Standalone.iUpf.pppIf.queue queueLength:last 0
scalar MultiCell_Standalone.iUpf.pppIf.queue queueLength:max 0
scalar MultiCell_Standalone.iUpf.pppIf.queue queueLength:timeavg 0
scalar MultiCell_Standalone.iUpf.pppIf.queue queueBitLength:last 0
scalar MultiCell_Standalone.iUpf.pppIf.queue queueBitLength:max 0
scalar MultiCell_Standalone.iUpf.pppIf.queue queueBitLength:timeavg 0
scalar MultiCell_Standalone.iUpf.pppIf.queue outgoingPackets:count 0
scalar MultiCell_Standalone.iUpf.pppIf.queue outgoingPacketLengths:sum 0
scalar MultiCell_Standalone.iUpf.pppIf.queue incomingPackets:count 0
scalar MultiCell_Standalone.iUpf.pppIf.queue incomingPacketLengths:sum 0
scalar MultiCell_Standalone.iUpf.pppIf.queue droppedPacketsQueueOverflow:count 0
scalar MultiCell_Standalone.iUpf.pppIf.queue droppedPacketLengthsQueueOverflow:sum 0
scalar MultiCell_Standalone.iUpf.pppIf.ppp transmissionState:timeavg 0
scalar MultiCell_Standalone.iUpf.pppIf.ppp rxPkOk:count 0
scalar MultiCell_Standalone.iUpf.pppIf.ppp rxPkOk:sum(packetBytes) 0
scalar MultiCell_Standalone.iUpf.pppIf.ppp txPk:count 0
scalar MultiCell_Standalone.iUpf.pppIf.ppp txPk:sum(packetBytes) 0
scalar MultiCell_Standalone.iUpf.pppIf.ppp rcvdPkFromHl:count 0
scalar MultiCell_Standalone.iUpf.pppIf.ppp rcvdPkFromHl:sum(packetBytes) 0
scalar MultiCell_Standalone.iUpf.pppIf.ppp passedUpPk:count 0
scalar MultiCell_Standalone.iUpf.pppIf.ppp passedUpPk:sum(packetBytes) 0
scalar MultiCell_Standalone.iUpf.pppIf.ppp packetDropIncorrectlyReceived:count 0
scalar MultiCell_Standalone.iUpf.pppIf.ppp packetDropIncorrectlyReceived:sum(packetBytes) 0
scalar MultiCell_Standalone.iUpf.pppIf.ppp packetDropInterfaceDown:count 0
scalar MultiCell_Standalone.iUpf.pppIf.ppp packetDropInterfaceDown:sum(packetBytes) 0
scalar MultiCell_Standalone.iUpf.pppIf packetDropInterfaceDown:count 0
scalar MultiCell_Standalone.iUpf.pppIf packetDropInterfaceDown:sum(packetBytes) 0
scalar MultiCell_Standalone.iUpf.pppIf packetDropNoCarrier:count 0
scalar MultiCell_Standalone.iUpf.pppIf packetDropNoCarrier:sum(packetBytes) 0
scalar MultiCell_Standalone.iUpf.udp packetReceived:count 0
scalar MultiCell_Standalone.iUpf.udp packetReceived:sum(packetBytes) 0
scalar MultiCell_Standalone.iUpf.udp packetSent:count 0
scalar MultiCell_Standalone.iUpf.udp packetSent:sum(packetBytes) 0
scalar MultiCell_Standalone.iUpf.udp passedUpPk:count 0
scalar MultiCell_Standalone.iUpf.udp droppedPkWrongPort:count 0
scalar MultiCell_Standalone.iUpf.udp droppedPkBadChecksum:count 0
scalar MultiCell_Standalone.gnb1.cellularNic.pdcp sentPacketToLowerLayer:count 0
scalar MultiCell_Standalone.gnb1.cellularNic.pdcp sentPacketToLowerLayer:sum(packetBytes) 0
scalar MultiCell_Standalone.gnb1.cellularNic.pdcp sentPacketToUpperLayer:count 995
scalar MultiCell_Standalone.gnb1.cellularNic.pdcp sentPacketToUpperLayer:sum(packetBytes) 127360
scalar MultiCell_Standalone.gnb1.cellularNic.pdcp receivedPacketFromLowerLayer:count 995
scalar MultiCell_Standalone.gnb1.cellularNic.pdcp receivedPacketFromLowerLayer:sum(packetBytes) 128355
scalar MultiCell_Standalone.gnb1.cellularNic.pdcp receivedPacketFromUpperLayer:count 0
scalar MultiCell_Standalone.gnb1.cellularNic.pdcp receivedPacketFromUpperLayer:sum(packetBytes) 0
scalar MultiCell_Standalone.gnb1.cellularNic.rlc.tm rlcPacketLossUl:mean -nan
scalar MultiCell_Standalone.gnb1.cellularNic.rlc.tm rlcPacketLossUl:sum 0
scalar MultiCell_Standalone.gnb1.cellularNic.rlc.tm rlcPacketLossDl:mean -nan
scalar MultiCell_Standalone.gnb1.cellularNic.rlc.tm rlcPacketLossDl:sum 0
scalar MultiCell_Standalone.gnb1.cellularNic.rlc.tm sentPacketToLowerLayer:count 0
scalar MultiCell_Standalone.gnb1.cellularNic.rlc.tm sentPacketToLowerLayer:sum(packetBytes) 0
scalar MultiCell_Standalone.gnb1.cellularNic.rlc.tm sentPacketToUpperLayer:count 0
scalar MultiCell_Standalone.gnb1.cellularNic.rlc.tm sentPacketToUpperLayer:sum(packetBytes) 0
scalar MultiCell_Standalone.gnb1.cellularNic.rlc.tm receivedPacketFromLowerLayer:count 0
scalar MultiCell_Standalone.gnb1.cellularNic.rlc.tm receivedPacketFromLowerLayer:sum(packetBytes) 0
scalar MultiCell_Standalone.gnb1.cellularNic.rlc.tm receivedPacketFromUpperLayer:count 0
scalar MultiCell_Standalone.gnb1.cellularNic.rlc.tm receivedPacketFromUpperLayer:sum(packetBytes) 0
scalar MultiCell_Standalone.gnb1.cellularNic.rlc.um rlcCellThroughputD2D:simu5g_rateavg -nan
scalar MultiCell_Standalone.gnb1.cellularNic.rlc.um rlcPduThroughputD2D:simu5g_rateavg -nan
scalar MultiCell_Standalone.gnb1.cellularNic.rlc.um rlcPduDelayD2D:mean -nan
scalar MultiCell_Standalone.gnb1.cellularNic.rlc.um rlcThroughputD2D:simu5g_rateavg -nan
scalar MultiCell_Standalone.gnb1.cellularNic.rlc.um rlcDelayD2D:mean -nan
scalar MultiCell_Standalone.gnb1.cellularNic.rlc.um rlcCellThroughputUl:simu5g_rateavg 6410.6571858672323
scalar MultiCell_Standalone.gnb1.cellularNic.rlc.um rlcCellThroughputDl:simu5g_rateavg -nan
scalar MultiCell_Standalone.gnb1.cellularNic.rlc.um rlcPduThroughputUl:simu5g_rateavg -nan
scalar MultiCell_Standalone.gnb1.cellularNic.rlc.um rlcPduThroughputDl:simu5g_rateavg -nan
scalar MultiCell_Standalone.gnb1.cellularNic.rlc.um rlcPduDelayUl:mean -nan
scalar MultiCell_Standalone.gnb1.cellularNic.rlc.um rlcPduDelayDl:mean -nan
scalar MultiCell_Standalone.gnb1.cellularNic.rlc.um rlcThroughputUl:simu5g_rateavg -nan
scalar MultiCell_Standalone.gnb1.cellularNic.rlc.um rlcThroughputDl:simu5g_rateavg -nan
scalar MultiCell_Standalone.gnb1.cellularNic.rlc.um rlcDelayUl:mean -nan
scalar MultiCell_Standalone.gnb1.cellularNic.rlc.um rlcDelayDl:mean -nan
scalar MultiCell_Standalone.gnb1.cellularNic.rlc.um sentPacketToLowerLayer:count 0
scalar MultiCell_Standalone.gnb1.cellularNic.rlc.um sentPacketToLowerLayer:sum(packetBytes) 0
scalar MultiCell_Standalone.gnb1.cellularNic.rlc.um sentPacketToUpperLayer:count 995
scalar MultiCell_Standalone.gnb1.cellularNic.rlc.um sentPacketToUpperLayer:sum(packetBytes) 128355
scalar MultiCell_Standalone.gnb1.cellularNic.rlc.um receivedPacketFromLowerLayer:count 1536
scalar MultiCell_Standalone.gnb1.cellularNic.rlc.um receivedPacketFromLowerLayer:sum(packetBytes) 131427
scalar MultiCell_Standalone.gnb1.cellularNic.rlc.um receivedPacketFromUpperLayer:count 0
scalar MultiCell_Standalone.gnb1.cellularNic.rlc.um receivedPacketFromUpperLayer:sum(packetBytes) 0
scalar MultiCell_Standalone.gnb1.cellularNic.rlc.am rlcPacketLossTotal:mean -nan
scalar MultiCell_Standalone.gnb1.cellularNic.rlc.am rlcCellThroughputUl:simu5g_rateavg -nan
scalar MultiCell_Standalone.gnb1.cellularNic.rlc.am rlcCellThroughputDl:simu5g_rateavg -nan
scalar MultiCell_Standalone.gnb1.cellularNic.rlc.am rlcPduThroughputUl:simu5g_rateavg -nan
scalar MultiCell_Standalone.gnb1.cellularNic.rlc.am rlcPduThroughputDl:simu5g_rateavg -nan
scalar MultiCell_Standalone.gnb1.cellularNic.rlc.am rlcPduDelayUl:mean -nan
scalar MultiCell_Standalone.gnb1.cellularNic.rlc.am rlcPduDelayDl:mean -nan
scalar MultiCell_Standalone.gnb1.cellularNic.rlc.am rlcThroughputUl:simu5g_rateavg -nan
scalar MultiCell_Standalone.gnb1.cellularNic.rlc.am rlcThroughputDl:simu5g_rateavg -nan
scalar MultiCell_Standalone.gnb1.cellularNic.rlc.am rlcDelayUl:mean -nan
scalar MultiCell_Standalone.gnb1.cellularNic.rlc.am rlcDelayDl:mean -nan
scalar MultiCell_Standalone.gnb1.cellularNic.rlc.am rlcPduPacketLossUl:mean -nan
scalar MultiCell_Standalone.gnb1.cellularNic.rlc.am rlcPduPacketLossDl:mean -nan
scalar MultiCell_Standalone.gnb1.cellularNic.rlc.am rlcPacketLossUl:mean -nan
scalar MultiCell_Standalone.gnb1.cellularNic.rlc.am rlcPacketLossDl:mean -nan
scalar MultiCell_Standalone.gnb1.cellularNic.rlc.am rlcCellPacketLossUl:mean -nan
scalar MultiCell_Standalone.gnb1.cellularNic.rlc.am rlcCellPacketLossDl:mean -nan
scalar MultiCell_Standalone.gnb1.cellularNic.mac avgServedBlocksUl:mean 0.091850000000000001
scalar MultiCell_Standalone.gnb1.cellularNic.mac avgServedBlocksDl:mean 0
scalar MultiCell_Standalone.gnb1.cellularNic.mac macCellPacketLossD2D:mean -nan
scalar MultiCell_Standalone.gnb1.cellularNic.mac macCellThroughputD2D:simu5g_rateavg -nan
scalar MultiCell_Standalone.gnb1.cellularNic.mac harqTxAttemptsUl:mean -nan
scalar MultiCell_Standalone.gnb1.cellularNic.mac harqTxAttemptsDl:mean -nan
scalar MultiCell_Standalone.gnb1.cellularNic.mac harqErrorRate_4th_Ul:mean -nan
scalar MultiCell_Standalone.gnb1.cellularNic.mac harqErrorRate_4th_Dl:mean -nan
scalar MultiCell_Standalone.gnb1.cellularNic.mac harqErrorRate_3rd_Ul:mean -nan
scalar MultiCell_Standalone.gnb1.cellularNic.mac harqErrorRate_3rd_Dl:mean -nan
scalar MultiCell_Standalone.gnb1.cellularNic.mac harqErrorRate_2nd_Ul:mean -nan
scalar MultiCell_Standalone.gnb1.cellularNic.mac harqErrorRate_2nd_Dl:mean -nan
scalar MultiCell_Standalone.gnb1.cellularNic.mac harqErrorRate_1st_Ul:mean -nan
scalar MultiCell_Standalone.gnb1.cellularNic.mac harqErrorRate_1st_Dl:mean -nan
scalar MultiCell_Standalone.gnb1.cellularNic.mac harqErrorRateUl:mean -nan
scalar MultiCell_Standalone.gnb1.cellularNic.mac harqErrorRateDl:mean -nan
scalar MultiCell_Standalone.gnb1.cellularNic.mac macCellPacketLossUl:mean 0
scalar MultiCell_Standalone.gnb1.cellularNic.mac macCellPacketLossDl:mean -nan
scalar MultiCell_Standalone.gnb1.cellularNic.mac macPacketLossUl:mean -nan
scalar MultiCell_Standalone.gnb1.cellularNic.mac macPacketLossDl:mean -nan
scalar MultiCell_Standalone.gnb1.cellularNic.mac macThroughputUl:simu5g_rateavg -nan
scalar MultiCell_Standalone.gnb1.cellularNic.mac macThroughputDl:simu5g_rateavg -nan
scalar MultiCell_Standalone.gnb1.cellularNic.mac macDelayUl:mean -nan
scalar MultiCell_Standalone.gnb1.cellularNic.mac macDelayDl:mean -nan
scalar MultiCell_Standalone.gnb1.cellularNic.mac macCellThroughputUl:simu5g_rateavg 6715.7151737019958
scalar MultiCell_Standalone.gnb1.cellularNic.mac macCellThroughputDl:simu5g_rateavg -nan
scalar MultiCell_Standalone.gnb1.cellularNic.mac sentPacketToLowerLayer:count 4204
scalar MultiCell_Standalone.gnb1.cellularNic.mac sentPacketToLowerLayer:sum(packetBytes) 4204
scalar MultiCell_Standalone.gnb1.cellularNic.mac sentPacketToUpperLayer:count 1536
scalar MultiCell_Standalone.gnb1.cellularNic.mac sentPacketToUpperLayer:sum(packetBytes) 131427
scalar MultiCell_Standalone.gnb1.cellularNic.mac receivedPacketFromLowerLayer:count 3036
scalar MultiCell_Standalone.gnb1.cellularNic.mac receivedPacketFromLowerLayer:sum(packetBytes) 148314
scalar MultiCell_Standalone.gnb1.cellularNic.mac receivedPacketFromUpperLayer:count 0
scalar MultiCell_Standalone.gnb1.cellularNic.mac receivedPacketFromUpperLayer:sum(packetBytes) 0
scalar MultiCell_Standalone.gnb1.cellularNic.mac macBufferOverFlowD2D:mean -nan
scalar MultiCell_Standalone.gnb1.cellularNic.mac macBufferOverFlowUl:mean -nan
scalar MultiCell_Standalone.gnb1.cellularNic.mac macBufferOverFlowDl:mean -nan
scalar MultiCell_Standalone.gnb1.cellularNic.channelModel[0] measuredSinrUl:mean -nan
scalar MultiCell_Standalone.gnb1.cellularNic.channelModel[0] measuredSinrDl:mean -nan
scalar MultiCell_Standalone.gnb1.cellularNic.channelModel[0] rcvdSinrD2D:mean -nan
scalar MultiCell_Standalone.gnb1.cellularNic.channelModel[0] rcvdSinrUl:mean -nan
scalar MultiCell_Standalone.gnb1.cellularNic.channelModel[0] rcvdSinrDl:mean -nan
scalar MultiCell_Standalone.gnb1.cellularNic packetDropInterfaceDown:count 0
scalar MultiCell_Standalone.gnb1.cellularNic packetDropInterfaceDown:sum(packetBytes) 0
scalar MultiCell_Standalone.gnb1.cellularNic packetDropNoCarrier:count 0
scalar MultiCell_Standalone.gnb1.cellularNic packetDropNoCarrier:sum(packetBytes) 0
scalar MultiCell_Standalone.gnb1.pppIf.queue queueLength:last 0
scalar MultiCell_Standalone.gnb1.pppIf.queue queueLength:max 1
scalar MultiCell_Standalone.gnb1.pppIf.queue queueLength:timeavg 4.4460000000000026e-07
scalar MultiCell_Standalone.gnb1.pppIf.queue queueBitLength:last 0
scalar MultiCell_Standalone.gnb1.pppIf.queue queueBitLength:max 1312
scalar MultiCell_Standalone.gnb1.pppIf.queue queueBitLength:timeavg 0.00058331519999999957
scalar MultiCell_Standalone.gnb1.pppIf.queue outgoingPackets:count 995
scalar MultiCell_Standalone.gnb1.pppIf.queue outgoingPacketLengths:sum 1305440
scalar MultiCell_Standalone.gnb1.pppIf.queue incomingPackets:count 995
scalar MultiCell_Standalone.gnb1.pppIf.queue incomingPacketLengths:sum 1305440
scalar MultiCell_Standalone.gnb1.pppIf.queue droppedPacketsQueueOverflow:count 0
scalar MultiCell_Standalone.gnb1.pppIf.queue droppedPacketLengthsQueueOverflow:sum 0
scalar MultiCell_Standalone.gnb1.pppIf.ppp transmissionState:timeavg 6.8058000000000611e-06
scalar MultiCell_Standalone.gnb1.pppIf.ppp rxPkOk:count 0
scalar MultiCell_Standalone.gnb1.pppIf.ppp rxPkOk:sum(packetBytes) 0
scalar MultiCell_Standalone.gnb1.pppIf.ppp txPk:count 995
scalar MultiCell_Standalone.gnb1.pppIf.ppp txPk:sum(packetBytes) 170145
scalar MultiCell_Standalone.gnb1.pppIf.ppp rcvdPkFromHl:count 995
scalar MultiCell_Standalone.gnb1.pppIf.ppp rcvdPkFromHl:sum(packetBytes) 163180
scalar MultiCell_Standalone.gnb1.pppIf.ppp passedUpPk:count 0
scalar MultiCell_Standalone.gnb1.pppIf.ppp passedUpPk:sum(packetBytes) 0
scalar MultiCell_Standalone.gnb1.pppIf.ppp packetDropIncorrectlyReceived:count 0
scalar MultiCell_Standalone.gnb1.pppIf.ppp packetDropIncorrectlyReceived:sum(packetBytes) 0
scalar MultiCell_Standalone.gnb1.pppIf.ppp packetDropInterfaceDown:count 0
scalar MultiCell_Standalone.gnb1.pppIf.ppp packetDropInterfaceDown:sum(packetBytes) 0
scalar MultiCell_Standalone.gnb1.pppIf packetDropInterfaceDown:count 0
scalar MultiCell_Standalone.gnb1.pppIf packetDropInterfaceDown:sum(packetBytes) 0
scalar MultiCell_Standalone.gnb1.pppIf packetDropNoCarrier:count 0
scalar MultiCell_Standalone.gnb1.pppIf packetDropNoCarrier:sum(packetBytes) 0
scalar MultiCell_Standalone.gnb1.x2ppp[0].queue queueLength:last 0
scalar MultiCell_Standalone.gnb1.x2ppp[0].queue queueLength:max 0
scalar MultiCell_Standalone.gnb1.x2ppp[0].queue queueLength:timeavg 0
scalar MultiCell_Standalone.gnb1.x2ppp[0].queue queueBitLength:last 0
scalar MultiCell_Standalone.gnb1.x2ppp[0].queue queueBitLength:max 0
scalar MultiCell_Standalone.gnb1.x2ppp[0].queue queueBitLength:timeavg 0
scalar MultiCell_Standalone.gnb1.x2ppp[0].queue outgoingPackets:count 4
scalar MultiCell_Standalone.gnb1.x2ppp[0].queue outgoingPacketLengths:sum 3328
scalar MultiCell_Standalone.gnb1.x2ppp[0].queue incomingPackets:count 4
scalar MultiCell_Standalone.gnb1.x2ppp[0].queue incomingPacketLengths:sum 3328
scalar MultiCell_Standalone.gnb1.x2ppp[0].queue droppedPacketsQueueOverflow:count 0
scalar MultiCell_Standalone.gnb1.x2ppp[0].queue droppedPacketLengthsQueueOverflow:sum 0
scalar MultiCell_Standalone.gnb1.x2ppp[0].ppp transmissionState:timeavg 1.7759999999999998e-08
scalar MultiCell_Standalone.gnb1.x2ppp[0].ppp rxPkOk:count 4
scalar MultiCell_Standalone.gnb1.x2ppp[0].ppp rxPkOk:sum(packetBytes) 444
scalar MultiCell_Standalone.gnb1.x2ppp[0].ppp txPk:count 4
scalar MultiCell_Standalone.gnb1.x2ppp[0].ppp txPk:sum(packetBytes) 444
scalar MultiCell_Standalone.gnb1.x2ppp[0].ppp rcvdPkFromHl:count 4
scalar MultiCell_Standalone.gnb1.x2ppp[0].ppp rcvdPkFromHl:sum(packetBytes) 416
scalar MultiCell_Standalone.gnb1.x2ppp[0].ppp passedUpPk:count 4
scalar MultiCell_Standalone.gnb1.x2ppp[0].ppp passedUpPk:sum(packetBytes) 416
scalar MultiCell_Standalone.gnb1.x2ppp[0].ppp packetDropIncorrectlyReceived:count 0
scalar MultiCell_Standalone.gnb1.x2ppp[0].ppp packetDropIncorrectlyReceived:sum(packetBytes) 0
scalar MultiCell_Standalone.gnb1.x2ppp[0].ppp packetDropInterfaceDown:count 0
scalar MultiCell_Standalone.gnb1.x2ppp[0].ppp packetDropInterfaceDown:sum(packetBytes) 0
scalar MultiCell_Standalone.gnb1.x2ppp[0] packetDropInterfaceDown:count 0
scalar MultiCell_Standalone.gnb1.x2ppp[0] packetDropInterfaceDown:sum(packetBytes) 0
scalar MultiCell_Standalone.gnb1.x2ppp[0] packetDropNoCarrier:count 0
scalar MultiCell_Standalone.gnb1.x2ppp[0] packetDropNoCarrier:sum(packetBytes) 0
scalar MultiCell_Standalone.gnb1.pppMEHostIf.queue queueLength:last 0
scalar MultiCell_Standalone.gnb1.pppMEHostIf.queue queueLength:max 0
scalar MultiCell_Standalone.gnb1.pppMEHostIf.queue queueLength:timeavg 0
scalar MultiCell_Standalone.gnb1.pppMEHostIf.queue queueBitLength:last 0
scalar MultiCell_Standalone.gnb1.pppMEHostIf.queue queueBitLength:max 0
scalar MultiCell_Standalone.gnb1.pppMEHostIf.queue queueBitLength:timeavg 0
scalar MultiCell_Standalone.gnb1.pppMEHostIf.queue outgoingPackets:count 0
scalar MultiCell_Standalone.gnb1.pppMEHostIf.queue outgoingPacketLengths:sum 0
scalar MultiCell_Standalone.gnb1.pppMEHostIf.queue incomingPackets:count 0
scalar MultiCell_Standalone.gnb1.pppMEHostIf.queue incomingPacketLengths:sum 0
scalar MultiCell_Standalone.gnb1.pppMEHostIf.queue droppedPacketsQueueOverflow:count 0
scalar MultiCell_Standalone.gnb1.pppMEHostIf.queue droppedPacketLengthsQueueOverflow:sum 0
scalar MultiCell_Standalone.gnb1.pppMEHostIf.ppp transmissionState:timeavg 0
scalar MultiCell_Standalone.gnb1.pppMEHostIf.ppp rxPkOk:count 0
scalar MultiCell_Standalone.gnb1.pppMEHostIf.ppp rxPkOk:sum(packetBytes) 0
scalar MultiCell_Standalone.gnb1.pppMEHostIf.ppp txPk:count 0
scalar MultiCell_Standalone.gnb1.pppMEHostIf.ppp txPk:sum(packetBytes) 0
scalar MultiCell_Standalone.gnb1.pppMEHostIf.ppp rcvdPkFromHl:count 0
scalar MultiCell_Standalone.gnb1.pppMEHostIf.ppp rcvdPkFromHl:sum(packetBytes) 0
scalar MultiCell_Standalone.gnb1.pppMEHostIf.ppp passedUpPk:count 0
scalar MultiCell_Standalone.gnb1.pppMEHostIf.ppp passedUpPk:sum(packetBytes) 0
scalar MultiCell_Standalone.gnb1.pppMEHostIf.ppp packetDropIncorrectlyReceived:count 0
scalar MultiCell_Standalone.gnb1.pppMEHostIf.ppp packetDropIncorrectlyReceived:sum(packetBytes) 0
scalar MultiCell_Standalone.gnb1.pppMEHostIf.ppp packetDropInterfaceDown:count 0
scalar MultiCell_Standalone.gnb1.pppMEHostIf.ppp packetDropInterfaceDown:sum(packetBytes) 0
scalar MultiCell_Standalone.gnb1.pppMEHostIf packetDropInterfaceDown:count 0
scalar MultiCell_Standalone.gnb1.pppMEHostIf packetDropInterfaceDown:sum(packetBytes) 0
scalar MultiCell_Standalone.gnb1.pppMEHostIf packetDropNoCarrier:count 0
scalar MultiCell_Standalone.gnb1.pppMEHostIf packetDropNoCarrier:sum(packetBytes) 0
scalar MultiCell_Standalone.gnb1.ipv4.ip packetDropAddressResolutionFailed:count 0
scalar MultiCell_Standalone.gnb1.ipv4.ip packetDropAddressResolutionFailed:sum(packetBytes) 0
scalar MultiCell_Standalone.gnb1.ipv4.ip packetDropHopLimitReached:count 0
scalar MultiCell_Standalone.gnb1.ipv4.ip packetDropHopLimitReached:sum(packetBytes) 0
scalar MultiCell_Standalone.gnb1.ipv4.ip packetDropForwardingDisabled:count 0
scalar MultiCell_Standalone.gnb1.ipv4.ip packetDropForwardingDisabled:sum(packetBytes) 0
scalar MultiCell_Standalone.gnb1.ipv4.ip packetDropNoInterfaceFound:count 0
scalar MultiCell_Standalone.gnb1.ipv4.ip packetDropNoInterfaceFound:sum(packetBytes) 0
scalar MultiCell_Standalone.gnb1.ipv4.ip packetDropNoRouteFound:count 0
scalar MultiCell_Standalone.gnb1.ipv4.ip packetDropNoRouteFound:sum(packetBytes) 0
scalar MultiCell_Standalone.gnb1.ipv4.ip packetDropUndefined:count 0
scalar MultiCell_Standalone.gnb1.ipv4.ip packetDropUndefined:sum(packetBytes) 0
scalar MultiCell_Standalone.gnb1.ipv4.arp arpResolutionFailed:count 0
scalar MultiCell_Standalone.gnb1.ipv4.arp arpResolutionCompleted:count 0
scalar MultiCell_Standalone.gnb1.ipv4.arp arpResolutionInitiated:count 0
scalar MultiCell_Standalone.gnb1.ipv4.arp arpReplySent:count 0
scalar MultiCell_Standalone.gnb1.ipv4.arp arpReplySent:sum(packetBytes) 0
scalar MultiCell_Standalone.gnb1.ipv4.arp arpRequestSent:count 0
scalar MultiCell_Standalone.gnb1.ipv4.arp arpRequestSent:sum(packetBytes) 0
scalar MultiCell_Standalone.gnb1.udp packetReceived:count 0
scalar MultiCell_Standalone.gnb1.udp packetReceived:sum(packetBytes) 0
scalar MultiCell_Standalone.gnb1.udp packetSent:count 995
scalar MultiCell_Standalone.gnb1.udp packetSent:sum(packetBytes) 143280
scalar MultiCell_Standalone.gnb1.udp passedUpPk:count 0
scalar MultiCell_Standalone.gnb1.udp droppedPkWrongPort:count 0
scalar MultiCell_Standalone.gnb1.udp droppedPkBadChecksum:count 0
scalar MultiCell_Standalone.gnb1.x2App[0].client packetReceived:count 0
scalar MultiCell_Standalone.gnb1.x2App[0].client packetReceived:sum(packetBytes) 0
scalar MultiCell_Standalone.gnb1.x2App[0].client packetSent:count 0
scalar MultiCell_Standalone.gnb1.x2App[0].client packetSent:sum(packetBytes) 0
scalar MultiCell_Standalone.gnb1.x2App[0].client echoedPk:count 0
scalar MultiCell_Standalone.gnb1.x2App[0].client echoedPk:sum(packetBytes) 0
scalar MultiCell_Standalone.gnb1.x2App[0].server "bytes rcvd" 0
scalar MultiCell_Standalone.gnb1.x2App[0].server throughput -nan
scalar MultiCell_Standalone.gnb2.cellularNic.pdcp sentPacketToLowerLayer:count 0
scalar MultiCell_Standalone.gnb2.cellularNic.pdcp sentPacketToLowerLayer:sum(packetBytes) 0
scalar MultiCell_Standalone.gnb2.cellularNic.pdcp sentPacketToUpperLayer:count 0
scalar MultiCell_Standalone.gnb2.cellularNic.pdcp sentPacketToUpperLayer:sum(packetBytes) 0
scalar MultiCell_Standalone.gnb2.cellularNic.pdcp receivedPacketFromLowerLayer:count 0
scalar MultiCell_Standalone.gnb2.cellularNic.pdcp receivedPacketFromLowerLayer:sum(packetBytes) 0
scalar MultiCell_Standalone.gnb2.cellularNic.pdcp receivedPacketFromUpperLayer:count 0
scalar MultiCell_Standalone.gnb2.cellularNic.pdcp receivedPacketFromUpperLayer:sum(packetBytes) 0
scalar MultiCell_Standalone.gnb2.cellularNic.rlc.tm rlcPacketLossUl:mean -nan
scalar MultiCell_Standalone.gnb2.cellularNic.rlc.tm rlcPacketLossUl:sum 0
scalar MultiCell_Standalone.gnb2.cellularNic.rlc.tm rlcPacketLossDl:mean -nan
scalar MultiCell_Standalone.gnb2.cellularNic.rlc.tm rlcPacketLossDl:sum 0
scalar MultiCell_Standalone.gnb2.cellularNic.rlc.tm sentPacketToLowerLayer:count 0
scalar MultiCell_Standalone.gnb2.cellularNic.rlc.tm sentPacketToLowerLayer:sum(packetBytes) 0
scalar MultiCell_Standalone.gnb2.cellularNic.rlc.tm sentPacketToUpperLayer:count 0
scalar MultiCell_Standalone.gnb2.cellularNic.rlc.tm sentPacketToUpperLayer:sum(packetBytes) 0
scalar MultiCell_Standalone.gnb2.cellularNic.rlc.tm receivedPacketFromLowerLayer:count 0
scalar MultiCell_Standalone.gnb2.cellularNic.rlc.tm receivedPacketFromLowerLayer:sum(packetBytes) 0
scalar MultiCell_Standalone.gnb2.cellularNic.rlc.tm receivedPacketFromUpperLayer:count 0
scalar MultiCell_Standalone.gnb2.cellularNic.rlc.tm receivedPacketFromUpperLayer:sum(packetBytes) 0
scalar MultiCell_Standalone.gnb2.cellularNic.rlc.um rlcCellThroughputD2D:simu5g_rateavg -nan
scalar MultiCell_Standalone.gnb2.cellularNic.rlc.um rlcPduThroughputD2D:simu5g_rateavg -nan
scalar MultiCell_Standalone.gnb2.cellularNic.rlc.um rlcPduDelayD2D:mean -nan
scalar MultiCell_Standalone.gnb2.cellularNic.rlc.um rlcThroughputD2D:simu5g_rateavg -nan
scalar MultiCell_Standalone.gnb2.cellularNic.rlc.um rlcDelayD2D:mean -nan
scalar MultiCell_Standalone.gnb2.cellularNic.rlc.um rlcCellThroughputUl:simu5g_rateavg -nan
scalar MultiCell_Standalone.gnb2.cellularNic.rlc.um rlcCellThroughputDl:simu5g_rateavg -nan
scalar MultiCell_Standalone.gnb2.cellularNic.rlc.um rlcPduThroughputUl:simu5g_rateavg -nan
scalar MultiCell_Standalone.gnb2.cellularNic.rlc.um rlcPduThroughputDl:simu5g_rateavg -nan
scalar MultiCell_Standalone.gnb2.cellularNic.rlc.um rlcPduDelayUl:mean -nan
scalar MultiCell_Standalone.gnb2.cellularNic.rlc.um rlcPduDelayDl:mean -nan
scalar MultiCell_Standalone.gnb2.cellularNic.rlc.um rlcThroughputUl:simu5g_rateavg -nan
scalar MultiCell_Standalone.gnb2.cellularNic.rlc.um rlcThroughputDl:simu5g_rateavg -nan
scalar MultiCell_Standalone.gnb2.cellularNic.rlc.um rlcDelayUl:mean -nan
scalar MultiCell_Standalone.gnb2.cellularNic.rlc.um rlcDelayDl:mean -nan
scalar MultiCell_Standalone.gnb2.cellularNic.rlc.um sentPacketToLowerLayer:count 0
scalar MultiCell_Standalone.gnb2.cellularNic.rlc.um sentPacketToLowerLayer:sum(packetBytes) 0
scalar MultiCell_Standalone.gnb2.cellularNic.rlc.um sentPacketToUpperLayer:count 0
scalar MultiCell_Standalone.gnb2.cellularNic.rlc.um sentPacketToUpperLayer:sum(packetBytes) 0
scalar MultiCell_Standalone.gnb2.cellularNic.rlc.um receivedPacketFromLowerLayer:count 0
scalar MultiCell_Standalone.gnb2.cellularNic.rlc.um receivedPacketFromLowerLayer:sum(packetBytes) 0
scalar MultiCell_Standalone.gnb2.cellularNic.rlc.um receivedPacketFromUpperLayer:count 0
scalar MultiCell_Standalone.gnb2.cellularNic.rlc.um receivedPacketFromUpperLayer:sum(packetBytes) 0
scalar MultiCell_Standalone.gnb2.cellularNic.rlc.am rlcPacketLossTotal:mean -nan
scalar MultiCell_Standalone.gnb2.cellularNic.rlc.am rlcCellThroughputUl:simu5g_rateavg -nan
scalar MultiCell_Standalone.gnb2.cellularNic.rlc.am rlcCellThroughputDl:simu5g_rateavg -nan
scalar MultiCell_Standalone.gnb2.cellularNic.rlc.am rlcPduThroughputUl:simu5g_rateavg -nan
scalar MultiCell_Standalone.gnb2.cellularNic.rlc.am rlcPduThroughputDl:simu5g_rateavg -nan
scalar MultiCell_Standalone.gnb2.cellularNic.rlc.am rlcPduDelayUl:mean -nan
scalar MultiCell_Standalone.gnb2.cellularNic.rlc.am rlcPduDelayDl:mean -nan
scalar MultiCell_Standalone.gnb2.cellularNic.rlc.am rlcThroughputUl:simu5g_rateavg -nan
scalar MultiCell_Standalone.gnb2.cellularNic.rlc.am rlcThroughputDl:simu5g_rateavg -nan
scalar MultiCell_Standalone.gnb2.cellularNic.rlc.am rlcDelayUl:mean -nan
scalar MultiCell_Standalone.gnb2.cellularNic.rlc.am rlcDelayDl:mean -nan
scalar MultiCell_Standalone.gnb2.cellularNic.rlc.am rlcPduPacketLossUl:mean -nan
scalar MultiCell_Standalone.gnb2.cellularNic.rlc.am rlcPduPacketLossDl:mean -nan
scalar MultiCell_Standalone.gnb2.cellularNic.rlc.am rlcPacketLossUl:mean -nan
scalar MultiCell_Standalone.gnb2.cellularNic.rlc.am rlcPacketLossDl:mean -nan
scalar MultiCell_Standalone.gnb2.cellularNic.rlc.am rlcCellPacketLossUl:mean -nan
scalar MultiCell_Standalone.gnb2.cellularNic.rlc.am rlcCellPacketLossDl:mean -nan
scalar MultiCell_Standalone.gnb2.cellularNic.mac avgServedBlocksUl:mean 0
scalar MultiCell_Standalone.gnb2.cellularNic.mac avgServedBlocksDl:mean 0
scalar MultiCell_Standalone.gnb2.cellularNic.mac macCellPacketLossD2D:mean -nan
scalar MultiCell_Standalone.gnb2.cellularNic.mac macCellThroughputD2D:simu5g_rateavg -nan
scalar MultiCell_Standalone.gnb2.cellularNic.mac harqTxAttemptsUl:mean -nan
scalar MultiCell_Standalone.gnb2.cellularNic.mac harqTxAttemptsDl:mean -nan
scalar MultiCell_Standalone.gnb2.cellularNic.mac harqErrorRate_4th_Ul:mean -nan
scalar MultiCell_Standalone.gnb2.cellularNic.mac harqErrorRate_4th_Dl:mean -nan
scalar MultiCell_Standalone.gnb2.cellularNic.mac harqErrorRate_3rd_Ul:mean -nan
scalar MultiCell_Standalone.gnb2.cellularNic.mac harqErrorRate_3rd_Dl:mean -nan
scalar MultiCell_Standalone.gnb2.cellularNic.mac harqErrorRate_2nd_Ul:mean -nan
scalar MultiCell_Standalone.gnb2.cellularNic.mac harqErrorRate_2nd_Dl:mean -nan
scalar MultiCell_Standalone.gnb2.cellularNic.mac harqErrorRate_1st_Ul:mean -nan
scalar MultiCell_Standalone.gnb2.cellularNic.mac harqErrorRate_1st_Dl:mean -nan
scalar MultiCell_Standalone.gnb2.cellularNic.mac harqErrorRateUl:mean -nan
scalar MultiCell_Standalone.gnb2.cellularNic.mac harqErrorRateDl:mean -nan
scalar MultiCell_Standalone.gnb2.cellularNic.mac macCellPacketLossUl:mean -nan
scalar MultiCell_Standalone.gnb2.cellularNic.mac macCellPacketLossDl:mean -nan
scalar MultiCell_Standalone.gnb2.cellularNic.mac macPacketLossUl:mean -nan
scalar MultiCell_Standalone.gnb2.cellularNic.mac macPacketLossDl:mean -nan
scalar MultiCell_Standalone.gnb2.cellularNic.mac macThroughputUl:simu5g_rateavg -nan
scalar MultiCell_Standalone.gnb2.cellularNic.mac macThroughputDl:simu5g_rateavg -nan
scalar MultiCell_Standalone.gnb2.cellularNic.mac macDelayUl:mean -nan
scalar MultiCell_Standalone.gnb2.cellularNic.mac macDelayDl:mean -nan
scalar MultiCell_Standalone.gnb2.cellularNic.mac macCellThroughputUl:simu5g_rateavg -nan
scalar MultiCell_Standalone.gnb2.cellularNic.mac macCellThroughputDl:simu5g_rateavg -nan
scalar MultiCell_Standalone.gnb2.cellularNic.mac sentPacketToLowerLayer:count 0
scalar MultiCell_Standalone.gnb2.cellularNic.mac sentPacketToLowerLayer:sum(packetBytes) 0
scalar MultiCell_Standalone.gnb2.cellularNic.mac sentPacketToUpperLayer:count 0
scalar MultiCell_Standalone.gnb2.cellularNic.mac sentPacketToUpperLayer:sum(packetBytes) 0
scalar MultiCell_Standalone.gnb2.cellularNic.mac receivedPacketFromLowerLayer:count 0
scalar MultiCell_Standalone.gnb2.cellularNic.mac receivedPacketFromLowerLayer:sum(packetBytes) 0
scalar MultiCell_Standalone.gnb2.cellularNic.mac receivedPacketFromUpperLayer:count 0
scalar MultiCell_Standalone.gnb2.cellularNic.mac receivedPacketFromUpperLayer:sum(packetBytes) 0
scalar MultiCell_Standalone.gnb2.cellularNic.mac macBufferOverFlowD2D:mean -nan
scalar MultiCell_Standalone.gnb2.cellularNic.mac macBufferOverFlowUl:mean -nan
scalar MultiCell_Standalone.gnb2.cellularNic.mac macBufferOverFlowDl:mean -nan
scalar MultiCell_Standalone.gnb2.cellularNic.channelModel[0] measuredSinrUl:mean -nan
scalar MultiCell_Standalone.gnb2.cellularNic.channelModel[0] measuredSinrDl:mean -nan
scalar MultiCell_Standalone.gnb2.cellularNic.channelModel[0] rcvdSinrD2D:mean -nan
scalar MultiCell_Standalone.gnb2.cellularNic.channelModel[0] rcvdSinrUl:mean -nan
scalar MultiCell_Standalone.gnb2.cellularNic.channelModel[0] rcvdSinrDl:mean -nan
scalar MultiCell_Standalone.gnb2.cellularNic packetDropInterfaceDown:count 0
scalar MultiCell_Standalone.gnb2.cellularNic packetDropInterfaceDown:sum(packetBytes) 0
scalar MultiCell_Standalone.gnb2.cellularNic packetDropNoCarrier:count 0
scalar MultiCell_Standalone.gnb2.cellularNic packetDropNoCarrier:sum(packetBytes) 0
scalar MultiCell_Standalone.gnb2.pppIf.queue queueLength:last 0
scalar MultiCell_Standalone.gnb2.pppIf.queue queueLength:max 0
scalar MultiCell_Standalone.gnb2.pppIf.queue queueLength:timeavg 0
scalar MultiCell_Standalone.gnb2.pppIf.queue queueBitLength:last 0
scalar MultiCell_Standalone.gnb2.pppIf.queue queueBitLength:max 0
scalar MultiCell_Standalone.gnb2.pppIf.queue queueBitLength:timeavg 0
scalar MultiCell_Standalone.gnb2.pppIf.queue outgoingPackets:count 0
scalar MultiCell_Standalone.gnb2.pppIf.queue outgoingPacketLengths:sum 0
scalar MultiCell_Standalone.gnb2.pppIf.queue incomingPackets:count 0
scalar MultiCell_Standalone.gnb2.pppIf.queue incomingPacketLengths:sum 0
scalar MultiCell_Standalone.gnb2.pppIf.queue droppedPacketsQueueOverflow:count 0
scalar MultiCell_Standalone.gnb2.pppIf.queue droppedPacketLengthsQueueOverflow:sum 0
scalar MultiCell_Standalone.gnb2.pppIf.ppp transmissionState:timeavg 0
scalar MultiCell_Standalone.gnb2.pppIf.ppp rxPkOk:count 0
scalar MultiCell_Standalone.gnb2.pppIf.ppp rxPkOk:sum(packetBytes) 0
scalar MultiCell_Standalone.gnb2.pppIf.ppp txPk:count 0
scalar MultiCell_Standalone.gnb2.pppIf.ppp txPk:sum(packetBytes) 0
scalar MultiCell_Standalone.gnb2.pppIf.ppp rcvdPkFromHl:count 0
scalar MultiCell_Standalone.gnb2.pppIf.ppp rcvdPkFromHl:sum(packetBytes) 0
scalar MultiCell_Standalone.gnb2.pppIf.ppp passedUpPk:count 0
scalar MultiCell_Standalone.gnb2.pppIf.ppp passedUpPk:sum(packetBytes) 0
scalar MultiCell_Standalone.gnb2.pppIf.ppp packetDropIncorrectlyReceived:count 0
scalar MultiCell_Standalone.gnb2.pppIf.ppp packetDropIncorrectlyReceived:sum(packetBytes) 0
scalar MultiCell_Standalone.gnb2.pppIf.ppp packetDropInterfaceDown:count 0
scalar MultiCell_Standalone.gnb2.pppIf.ppp packetDropInterfaceDown:sum(packetBytes) 0
scalar MultiCell_Standalone.gnb2.pppIf packetDropInterfaceDown:count 0
scalar MultiCell_Standalone.gnb2.pppIf packetDropInterfaceDown:sum(packetBytes) 0
scalar MultiCell_Standalone.gnb2.pppIf packetDropNoCarrier:count 0
scalar MultiCell_Standalone.gnb2.pppIf packetDropNoCarrier:sum(packetBytes) 0
scalar MultiCell_Standalone.gnb2.x2ppp[0].queue queueLength:last 0
scalar MultiCell_Standalone.gnb2.x2ppp[0].queue queueLength:max 0
scalar MultiCell_Standalone.gnb2.x2ppp[0].queue queueLength:timeavg 0
scalar MultiCell_Standalone.gnb2.x2ppp[0].queue queueBitLength:last 0
scalar MultiCell_Standalone.gnb2.x2ppp[0].queue queueBitLength:max 0
scalar MultiCell_Standalone.gnb2.x2ppp[0].queue queueBitLength:timeavg 0
scalar MultiCell_Standalone.gnb2.x2ppp[0].queue outgoingPackets:count 4
scalar MultiCell_Standalone.gnb2.x2ppp[0].queue outgoingPacketLengths:sum 3328
scalar MultiCell_Standalone.gnb2.x2ppp[0].queue incomingPackets:count 4
scalar MultiCell_Standalone.gnb2.x2ppp[0].queue incomingPacketLengths:sum 3328
scalar MultiCell_Standalone.gnb2.x2ppp[0].queue droppedPacketsQueueOverflow:count 0
scalar MultiCell_Standalone.gnb2.x2ppp[0].queue droppedPacketLengthsQueueOverflow:sum 0
scalar MultiCell_Standalone.gnb2.x2ppp[0].ppp transmissionState:timeavg 1.7759999999999998e-08
scalar MultiCell_Standalone.gnb2.x2ppp[0].ppp rxPkOk:count 4
scalar MultiCell_Standalone.gnb2.x2ppp[0].ppp rxPkOk:sum(packetBytes) 444
scalar MultiCell_Standalone.gnb2.x2ppp[0].ppp txPk:count 4
scalar MultiCell_Standalone.gnb2.x2ppp[0].ppp txPk:sum(packetBytes) 444
scalar MultiCell_Standalone.gnb2.x2ppp[0].ppp rcvdPkFromHl:count 4
scalar MultiCell_Standalone.gnb2.x2ppp[0].ppp rcvdPkFromHl:sum(packetBytes) 416
scalar MultiCell_Standalone.gnb2.x2ppp[0].ppp passedUpPk:count 4
scalar MultiCell_Standalone.gnb2.x2ppp[0].ppp passedUpPk:sum(packetBytes) 416
scalar MultiCell_Standalone.gnb2.x2ppp[0].ppp packetDropIncorrectlyReceived:count 0
scalar MultiCell_Standalone.gnb2.x2ppp[0].ppp packetDropIncorrectlyReceived:sum(packetBytes) 0
scalar MultiCell_Standalone.gnb2.x2ppp[0].ppp packetDropInterfaceDown:count 0
scalar MultiCell_Standalone.gnb2.x2ppp[0].ppp packetDropInterfaceDown:sum(packetBytes) 0
scalar MultiCell_Standalone.gnb2.x2ppp[0] packetDropInterfaceDown:count 0
scalar MultiCell_Standalone.gnb2.x2ppp[0] packetDropInterfaceDown:sum(packetBytes) 0
scalar MultiCell_Standalone.gnb2.x2ppp[0] packetDropNoCarrier:count 0
scalar MultiCell_Standalone.gnb2.x2ppp[0] packetDropNoCarrier:sum(packetBytes) 0
scalar MultiCell_Standalone.gnb2.pppMEHostIf.queue queueLength:last 0
scalar MultiCell_Standalone.gnb2.pppMEHostIf.queue queueLength:max 0
scalar MultiCell_Standalone.gnb2.pppMEHostIf.queue queueLength:timeavg 0
scalar MultiCell_Standalone.gnb2.pppMEHostIf.queue queueBitLength:last 0
scalar MultiCell_Standalone.gnb2.pppMEHostIf.queue queueBitLength:max 0
scalar MultiCell_Standalone.gnb2.pppMEHostIf.queue queueBitLength:timeavg 0
scalar MultiCell_Standalone.gnb2.pppMEHostIf.queue outgoingPackets:count 0
scalar MultiCell_Standalone.gnb2.pppMEHostIf.queue outgoingPacketLengths:sum 0
scalar MultiCell_Standalone.gnb2.pppMEHostIf.queue incomingPackets:count 0
scalar MultiCell_Standalone.gnb2.pppMEHostIf.queue incomingPacketLengths:sum 0
scalar MultiCell_Standalone.gnb2.pppMEHostIf.queue droppedPacketsQueueOverflow:count 0
scalar MultiCell_Standalone.gnb2.pppMEHostIf.queue droppedPacketLengthsQueueOverflow:sum 0
scalar MultiCell_Standalone.gnb2.pppMEHostIf.ppp transmissionState:timeavg 0
scalar MultiCell_Standalone.gnb2.pppMEHostIf.ppp rxPkOk:count 0
scalar MultiCell_Standalone.gnb2.pppMEHostIf.ppp rxPkOk:sum(packetBytes) 0
scalar MultiCell_Standalone.gnb2.pppMEHostIf.ppp txPk:count 0
scalar MultiCell_Standalone.gnb2.pppMEHostIf.ppp txPk:sum(packetBytes) 0
scalar MultiCell_Standalone.gnb2.pppMEHostIf.ppp rcvdPkFromHl:count 0
scalar MultiCell_Standalone.gnb2.pppMEHostIf.ppp rcvdPkFromHl:sum(packetBytes) 0
scalar MultiCell_Standalone.gnb2.pppMEHostIf.ppp passedUpPk:count 0
scalar MultiCell_Standalone.gnb2.pppMEHostIf.ppp passedUpPk:sum(packetBytes) 0
scalar MultiCell_Standalone.gnb2.pppMEHostIf.ppp packetDropIncorrectlyReceived:count 0
scalar MultiCell_Standalone.gnb2.pppMEHostIf.ppp packetDropIncorrectlyReceived:sum(packetBytes) 0
scalar MultiCell_Standalone.gnb2.pppMEHostIf.ppp packetDropInterfaceDown:count 0
scalar MultiCell_Standalone.gnb2.pppMEHostIf.ppp packetDropInterfaceDown:sum(packetBytes) 0
scalar MultiCell_Standalone.gnb2.pppMEHostIf packetDropInterfaceDown:count 0
scalar MultiCell_Standalone.gnb2.pppMEHostIf packetDropInterfaceDown:sum(packetBytes) 0
scalar MultiCell_Standalone.gnb2.pppMEHostIf packetDropNoCarrier:count 0
scalar MultiCell_Standalone.gnb2.pppMEHostIf packetDropNoCarrier:sum(packetBytes) 0
scalar MultiCell_Standalone.gnb2.ipv4.ip packetDropAddressResolutionFailed:count 0
scalar MultiCell_Standalone.gnb2.ipv4.ip packetDropAddressResolutionFailed:sum(packetBytes) 0
scalar MultiCell_Standalone.gnb2.ipv4.ip packetDropHopLimitReached:count 0
scalar MultiCell_Standalone.gnb2.ipv4.ip packetDropHopLimitReached:sum(packetBytes) 0
scalar MultiCell_Standalone.gnb2.ipv4.ip packetDropForwardingDisabled:count 0
scalar MultiCell_Standalone.gnb2.ipv4.ip packetDropForwardingDisabled:sum(packetBytes) 0
scalar MultiCell_Standalone.gnb2.ipv4.ip packetDropNoInterfaceFound:count 0
scalar MultiCell_Standalone.gnb2.ipv4.ip packetDropNoInterfaceFound:sum(packetBytes) 0
scalar MultiCell_Standalone.gnb2.ipv4.ip packetDropNoRouteFound:count 0
scalar MultiCell_Standalone.gnb2.ipv4.ip packetDropNoRouteFound:sum(packetBytes) 0
scalar MultiCell_Standalone.gnb2.ipv4.ip packetDropUndefined:count 0
scalar MultiCell_Standalone.gnb2.ipv4.ip packetDropUndefined:sum(packetBytes) 0
scalar MultiCell_Standalone.gnb2.ipv4.arp arpResolutionFailed:count 0
scalar MultiCell_Standalone.gnb2.ipv4.arp arpResolutionCompleted:count 0
scalar MultiCell_Standalone.gnb2.ipv4.arp arpResolutionInitiated:count 0
scalar MultiCell_Standalone.gnb2.ipv4.arp arpReplySent:count 0
scalar MultiCell_Standalone.gnb2.ipv4.arp arpReplySent:sum(packetBytes) 0
scalar MultiCell_Standalone.gnb2.ipv4.arp arpRequestSent:count 0
scalar MultiCell_Standalone.gnb2.ipv4.arp arpRequestSent:sum(packetBytes) 0
scalar MultiCell_Standalone.gnb2.udp packetReceived:count 0
scalar MultiCell_Standalone.gnb2.udp packetReceived:sum(packetBytes) 0
scalar MultiCell_Standalone.gnb2.udp packetSent:count 0
scalar MultiCell_Standalone.gnb2.udp packetSent:sum(packetBytes) 0
scalar MultiCell_Standalone.gnb2.udp passedUpPk:count 0
scalar MultiCell_Standalone.gnb2.udp droppedPkWrongPort:count 0
scalar MultiCell_Standalone.gnb2.udp droppedPkBadChecksum:count 0
scalar MultiCell_Standalone.gnb2.x2App[0].client packetReceived:count 0
scalar MultiCell_Standalone.gnb2.x2App[0].client packetReceived:sum(packetBytes) 0
scalar MultiCell_Standalone.gnb2.x2App[0].client packetSent:count 0
scalar MultiCell_Standalone.gnb2.x2App[0].client packetSent:sum(packetBytes) 0
scalar MultiCell_Standalone.gnb2.x2App[0].client echoedPk:count 0
scalar MultiCell_Standalone.gnb2.x2App[0].client echoedPk:sum(packetBytes) 0
scalar MultiCell_Standalone.gnb2.x2App[0].server "bytes rcvd" 0
scalar MultiCell_Standalone.gnb2.x2App[0].server throughput -nan
scalar MultiCell_Standalone.ue[0].lo[0].lo rcvdPkFromHl:count 0
scalar MultiCell_Standalone.ue[0].lo[0].lo rcvdPkFromHl:sum(packetBytes) 0
scalar MultiCell_Standalone.ue[0].lo[0].lo passedUpPk:count 0
scalar MultiCell_Standalone.ue[0].lo[0].lo passedUpPk:sum(packetBytes) 0
scalar MultiCell_Standalone.ue[0].lo[0] packetDropInterfaceDown:count 0
scalar MultiCell_Standalone.ue[0].lo[0] packetDropInterfaceDown:sum(packetBytes) 0
scalar MultiCell_Standalone.ue[0].lo[0] packetDropNoCarrier:count 0
scalar MultiCell_Standalone.ue[0].lo[0] packetDropNoCarrier:sum(packetBytes) 0
scalar MultiCell_Standalone.ue[0].cellularNic.pdcp sentPacketToLowerLayer:count 995
scalar MultiCell_Standalone.ue[0].cellularNic.pdcp sentPacketToLowerLayer:sum(packetBytes) 128355
scalar MultiCell_Standalone.ue[0].cellularNic.pdcp sentPacketToUpperLayer:count 0
scalar MultiCell_Standalone.ue[0].cellularNic.pdcp sentPacketToUpperLayer:sum(packetBytes) 0
scalar MultiCell_Standalone.ue[0].cellularNic.pdcp receivedPacketFromLowerLayer:count 0
scalar MultiCell_Standalone.ue[0].cellularNic.pdcp receivedPacketFromLowerLayer:sum(packetBytes) 0
scalar MultiCell_Standalone.ue[0].cellularNic.pdcp receivedPacketFromUpperLayer:count 995
scalar MultiCell_Standalone.ue[0].cellularNic.pdcp receivedPacketFromUpperLayer:sum(packetBytes) 127360
scalar MultiCell_Standalone.ue[0].cellularNic.rlc.tm rlcPacketLossUl:mean -nan
scalar MultiCell_Standalone.ue[0].cellularNic.rlc.tm rlcPacketLossUl:sum 0
scalar MultiCell_Standalone.ue[0].cellularNic.rlc.tm rlcPacketLossDl:mean -nan
scalar MultiCell_Standalone.ue[0].cellularNic.rlc.tm rlcPacketLossDl:sum 0
scalar MultiCell_Standalone.ue[0].cellularNic.rlc.tm sentPacketToLowerLayer:count 0
scalar MultiCell_Standalone.ue[0].cellularNic.rlc.tm sentPacketToLowerLayer:sum(packetBytes) 0
scalar MultiCell_Standalone.ue[0].cellularNic.rlc.tm sentPacketToUpperLayer:count 0
scalar MultiCell_Standalone.ue[0].cellularNic.rlc.tm sentPacketToUpperLayer:sum(packetBytes) 0
scalar MultiCell_Standalone.ue[0].cellularNic.rlc.tm receivedPacketFromLowerLayer:count 0
scalar MultiCell_Standalone.ue[0].cellularNic.rlc.tm receivedPacketFromLowerLayer:sum(packetBytes) 0
scalar MultiCell_Standalone.ue[0].cellularNic.rlc.tm receivedPacketFromUpperLayer:count 0
scalar MultiCell_Standalone.ue[0].cellularNic.rlc.tm receivedPacketFromUpperLayer:sum(packetBytes) 0
scalar MultiCell_Standalone.ue[0].cellularNic.rlc.um rlcCellThroughputD2D:simu5g_rateavg -nan
scalar MultiCell_Standalone.ue[0].cellularNic.rlc.um rlcPduThroughputD2D:simu5g_rateavg -nan
scalar MultiCell_Standalone.ue[0].cellularNic.rlc.um rlcPduDelayD2D:mean -nan
scalar MultiCell_Standalone.ue[0].cellularNic.rlc.um rlcThroughputD2D:simu5g_rateavg -nan
scalar MultiCell_Standalone.ue[0].cellularNic.rlc.um rlcDelayD2D:mean -nan
scalar MultiCell_Standalone.ue[0].cellularNic.rlc.um rlcCellThroughputUl:simu5g_rateavg -nan
scalar MultiCell_Standalone.ue[0].cellularNic.rlc.um rlcCellThroughputDl:simu5g_rateavg -nan
scalar MultiCell_Standalone.ue[0].cellularNic.rlc.um rlcPduThroughputUl:simu5g_rateavg -nan
scalar MultiCell_Standalone.ue[0].cellularNic.rlc.um rlcPduThroughputDl:simu5g_rateavg -nan
scalar MultiCell_Standalone.ue[0].cellularNic.rlc.um rlcPduDelayUl:mean -nan
scalar MultiCell_Standalone.ue[0].cellularNic.rlc.um rlcPduDelayDl:mean -nan
scalar MultiCell_Standalone.ue[0].cellularNic.rlc.um rlcThroughputUl:simu5g_rateavg -nan
scalar MultiCell_Standalone.ue[0].cellularNic.rlc.um rlcThroughputDl:simu5g_rateavg -nan
scalar MultiCell_Standalone.ue[0].cellularNic.rlc.um rlcDelayUl:mean -nan
scalar MultiCell_Standalone.ue[0].cellularNic.rlc.um rlcDelayDl:mean -nan
scalar MultiCell_Standalone.ue[0].cellularNic.rlc.um sentPacketToLowerLayer:count 0
scalar MultiCell_Standalone.ue[0].cellularNic.rlc.um sentPacketToLowerLayer:sum(packetBytes) 0
scalar MultiCell_Standalone.ue[0].cellularNic.rlc.um sentPacketToUpperLayer:count 0
scalar MultiCell_Standalone.ue[0].cellularNic.rlc.um sentPacketToUpperLayer:sum(packetBytes) 0
scalar MultiCell_Standalone.ue[0].cellularNic.rlc.um receivedPacketFromLowerLayer:count 0
scalar MultiCell_Standalone.ue[0].cellularNic.rlc.um receivedPacketFromLowerLayer:sum(packetBytes) 0
scalar MultiCell_Standalone.ue[0].cellularNic.rlc.um receivedPacketFromUpperLayer:count 0
scalar MultiCell_Standalone.ue[0].cellularNic.rlc.um receivedPacketFromUpperLayer:sum(packetBytes) 0
scalar MultiCell_Standalone.ue[0].cellularNic.rlc.am rlcPacketLossTotal:mean -nan
scalar MultiCell_Standalone.ue[0].cellularNic.rlc.am rlcCellThroughputUl:simu5g_rateavg -nan
scalar MultiCell_Standalone.ue[0].cellularNic.rlc.am rlcCellThroughputDl:simu5g_rateavg -nan
scalar MultiCell_Standalone.ue[0].cellularNic.rlc.am rlcPduThroughputUl:simu5g_rateavg -nan
scalar MultiCell_Standalone.ue[0].cellularNic.rlc.am rlcPduThroughputDl:simu5g_rateavg -nan
scalar MultiCell_Standalone.ue[0].cellularNic.rlc.am rlcPduDelayUl:mean -nan
scalar MultiCell_Standalone.ue[0].cellularNic.rlc.am rlcPduDelayDl:mean -nan
scalar MultiCell_Standalone.ue[0].cellularNic.rlc.am rlcThroughputUl:simu5g_rateavg -nan
scalar MultiCell_Standalone.ue[0].cellularNic.rlc.am rlcThroughputDl:simu5g_rateavg -nan
scalar MultiCell_Standalone.ue[0].cellularNic.rlc.am rlcDelayUl:mean -nan
scalar MultiCell_Standalone.ue[0].cellularNic.rlc.am rlcDelayDl:mean -nan
scalar MultiCell_Standalone.ue[0].cellularNic.rlc.am rlcPduPacketLossUl:mean -nan
scalar MultiCell_Standalone.ue[0].cellularNic.rlc.am rlcPduPacketLossDl:mean -nan
scalar MultiCell_Standalone.ue[0].cellularNic.rlc.am rlcPacketLossUl:mean -nan
scalar MultiCell_Standalone.ue[0].cellularNic.rlc.am rlcPacketLossDl:mean -nan
scalar MultiCell_Standalone.ue[0].cellularNic.rlc.am rlcCellPacketLossUl:mean -nan
scalar MultiCell_Standalone.ue[0].cellularNic.rlc.am rlcCellPacketLossDl:mean -nan
scalar MultiCell_Standalone.ue[0].cellularNic.mac harqErrorRate_4th_D2D:mean -nan
scalar MultiCell_Standalone.ue[0].cellularNic.mac harqErrorRate_3rd_D2D:mean -nan
scalar MultiCell_Standalone.ue[0].cellularNic.mac harqErrorRate_2nd_D2D:mean -nan
scalar MultiCell_Standalone.ue[0].cellularNic.mac harqErrorRate_1st_D2D:mean -nan
scalar MultiCell_Standalone.ue[0].cellularNic.mac harqErrorRateD2D:mean -nan
scalar MultiCell_Standalone.ue[0].cellularNic.mac macPacketLossD2D:mean -nan
scalar MultiCell_Standalone.ue[0].cellularNic.mac macDelayD2D:mean -nan
scalar MultiCell_Standalone.ue[0].cellularNic.mac macThroughputD2D:simu5g_rateavg -nan
scalar MultiCell_Standalone.ue[0].cellularNic.mac harqTxAttemptsUl:mean -nan
scalar MultiCell_Standalone.ue[0].cellularNic.mac harqTxAttemptsDl:mean -nan
scalar MultiCell_Standalone.ue[0].cellularNic.mac harqErrorRate_4th_Ul:mean -nan
scalar MultiCell_Standalone.ue[0].cellularNic.mac harqErrorRate_4th_Dl:mean -nan
scalar MultiCell_Standalone.ue[0].cellularNic.mac harqErrorRate_3rd_Ul:mean -nan
scalar MultiCell_Standalone.ue[0].cellularNic.mac harqErrorRate_3rd_Dl:mean -nan
scalar MultiCell_Standalone.ue[0].cellularNic.mac harqErrorRate_2nd_Ul:mean -nan
scalar MultiCell_Standalone.ue[0].cellularNic.mac harqErrorRate_2nd_Dl:mean -nan
scalar MultiCell_Standalone.ue[0].cellularNic.mac harqErrorRate_1st_Ul:mean -nan
scalar MultiCell_Standalone.ue[0].cellularNic.mac harqErrorRate_1st_Dl:mean -nan
scalar MultiCell_Standalone.ue[0].cellularNic.mac harqErrorRateUl:mean -nan
scalar MultiCell_Standalone.ue[0].cellularNic.mac harqErrorRateDl:mean -nan
scalar MultiCell_Standalone.ue[0].cellularNic.mac macCellPacketLossUl:mean -nan
scalar MultiCell_Standalone.ue[0].cellularNic.mac macCellPacketLossDl:mean -nan
scalar MultiCell_Standalone.ue[0].cellularNic.mac macPacketLossUl:mean -nan
scalar MultiCell_Standalone.ue[0].cellularNic.mac macPacketLossDl:mean -nan
scalar MultiCell_Standalone.ue[0].cellularNic.mac macThroughputUl:simu5g_rateavg -nan
scalar MultiCell_Standalone.ue[0].cellularNic.mac macThroughputDl:simu5g_rateavg -nan
scalar MultiCell_Standalone.ue[0].cellularNic.mac macDelayUl:mean -nan
scalar MultiCell_Standalone.ue[0].cellularNic.mac macDelayDl:mean -nan
scalar MultiCell_Standalone.ue[0].cellularNic.mac macCellThroughputUl:simu5g_rateavg -nan
scalar MultiCell_Standalone.ue[0].cellularNic.mac macCellThroughputDl:simu5g_rateavg -nan
scalar MultiCell_Standalone.ue[0].cellularNic.mac rcvdD2DModeSwitchNotification:count 0
scalar MultiCell_Standalone.ue[0].cellularNic.mac sentPacketToLowerLayer:count 0
scalar MultiCell_Standalone.ue[0].cellularNic.mac sentPacketToLowerLayer:sum(packetBytes) 0
scalar MultiCell_Standalone.ue[0].cellularNic.mac sentPacketToUpperLayer:count 0
scalar MultiCell_Standalone.ue[0].cellularNic.mac sentPacketToUpperLayer:sum(packetBytes) 0
scalar MultiCell_Standalone.ue[0].cellularNic.mac receivedPacketFromLowerLayer:count 0
scalar MultiCell_Standalone.ue[0].cellularNic.mac receivedPacketFromLowerLayer:sum(packetBytes) 0
scalar MultiCell_Standalone.ue[0].cellularNic.mac receivedPacketFromUpperLayer:count 0
scalar MultiCell_Standalone.ue[0].cellularNic.mac receivedPacketFromUpperLayer:sum(packetBytes) 0
scalar MultiCell_Standalone.ue[0].cellularNic.mac macBufferOverFlowD2D:mean -nan
scalar MultiCell_Standalone.ue[0].cellularNic.mac macBufferOverFlowUl:mean -nan
scalar MultiCell_Standalone.ue[0].cellularNic.mac macBufferOverFlowDl:mean -nan
scalar MultiCell_Standalone.ue[0].cellularNic.phy distance:mean -nan
scalar MultiCell_Standalone.ue[0].cellularNic.phy averageCqiD2D:mean -nan
scalar MultiCell_Standalone.ue[0].cellularNic.phy averageCqiUl:mean -nan
scalar MultiCell_Standalone.ue[0].cellularNic.phy averageCqiUl:count 0
scalar MultiCell_Standalone.ue[0].cellularNic.phy averageCqiDl:mean -nan
scalar MultiCell_Standalone.ue[0].cellularNic.phy averageCqiDl:count 0
scalar MultiCell_Standalone.ue[0].cellularNic.channelModel[0] measuredSinrUl:mean -nan
scalar MultiCell_Standalone.ue[0].cellularNic.channelModel[0] measuredSinrDl:mean -nan
scalar MultiCell_Standalone.ue[0].cellularNic.channelModel[0] rcvdSinrD2D:mean -nan
scalar MultiCell_Standalone.ue[0].cellularNic.channelModel[0] rcvdSinrUl:mean -nan
scalar MultiCell_Standalone.ue[0].cellularNic.channelModel[0] rcvdSinrDl:mean -nan
scalar MultiCell_Standalone.ue[0].cellularNic.nrRlc.tm rlcPacketLossUl:mean -nan
scalar MultiCell_Standalone.ue[0].cellularNic.nrRlc.tm rlcPacketLossUl:sum 0
scalar MultiCell_Standalone.ue[0].cellularNic.nrRlc.tm rlcPacketLossDl:mean -nan
scalar MultiCell_Standalone.ue[0].cellularNic.nrRlc.tm rlcPacketLossDl:sum 0
scalar MultiCell_Standalone.ue[0].cellularNic.nrRlc.tm sentPacketToLowerLayer:count 0
scalar MultiCell_Standalone.ue[0].cellularNic.nrRlc.tm sentPacketToLowerLayer:sum(packetBytes) 0
scalar MultiCell_Standalone.ue[0].cellularNic.nrRlc.tm sentPacketToUpperLayer:count 0
[...]
scalar MultiCell_Standalone.gnb1.sctp "Bandwidth 6:10.0.2.2:min" inf
scalar MultiCell_Standalone.gnb1.sctp "Bandwidth 6:10.0.2.2:max" -inf
scalar MultiCell_Standalone.gnb1.sctp "Bandwidth 6:10.0.2.2:starttime" nan
scalar MultiCell_Standalone.gnb1.sctp "Bandwidth 6:10.0.2.2:endtime" nan
scalar MultiCell_Standalone.gnb1.sctp "RTO 6:10.0.2.2:count" 0
scalar MultiCell_Standalone.gnb1.sctp "RTO 6:10.0.2.2:sum" 0
scalar MultiCell_Standalone.gnb1.sctp "RTO 6:10.0.2.2:sumweights" 0
scalar MultiCell_Standalone.gnb1.sctp "RTO 6:10.0.2.2:mean" -nan
scalar MultiCell_Standalone.gnb1.sctp "RTO 6:10.0.2.2:stddev" nan
scalar MultiCell_Standalone.gnb1.sctp "RTO 6:10.0.2.2:min" inf
scalar MultiCell_Standalone.gnb1.sctp "RTO 6:10.0.2.2:max" -inf
scalar MultiCell_Standalone.gnb1.sctp "RTO 6:10.0.2.2:starttime" nan
scalar MultiCell_Standalone.gnb1.sctp "RTO 6:10.0.2.2:endtime" nan
scalar MultiCell_Standalone.gnb1.sctp "Slow Start Threshold 6:10.0.3.2:count" 0
scalar MultiCell_Standalone.gnb1.sctp "Slow Start Threshold 6:10.0.3.2:sum" 0
scalar MultiCell_Standalone.gnb1.sctp "Slow Start Threshold 6:10.0.3.2:sumweights" 0
scalar MultiCell_Standalone.gnb1.sctp "Slow Start Threshold 6:10.0.3.2:mean" -nan
scalar MultiCell_Standalone.gnb1.sctp "Slow Start Threshold 6:10.0.3.2:stddev" nan
scalar MultiCell_Standalone.gnb1.sctp "Slow Start Threshold 6:10.0.3.2:min" inf
scalar MultiCell_Standalone.gnb1.sctp "Slow Start Threshold 6:10.0.3.2:max" -inf
scalar MultiCell_Standalone.gnb1.sctp "Slow Start Threshold 6:10.0.3.2:starttime" nan
scalar MultiCell_Standalone.gnb1.sctp "Slow Start Threshold 6:10.0.3.2:endtime" nan
scalar MultiCell_Standalone.gnb1.sctp "Congestion Window 6:10.0.3.2:count" 0
scalar MultiCell_Standalone.gnb1.sctp "Congestion Window 6:10.0.3.2:sum" 0
scalar MultiCell_Standalone.gnb1.sctp "Congestion Window 6:10.0.3.2:sumweights" 0
scalar MultiCell_Standalone.gnb1.sctp "Congestion Window 6:10.0.3.2:mean" -nan
scalar MultiCell_Standalone.gnb1.sctp "Congestion Window 6:10.0.3.2:stddev" nan
scalar MultiCell_Standalone.gnb1.sctp "Congestion Window 6:10.0.3.2:min" inf
scalar MultiCell_Standalone.gnb1.sctp "Congestion Window 6:10.0.3.2:max" -inf
scalar MultiCell_Standalone.gnb1.sctp "Congestion Window 6:10.0.3.2:starttime" nan
scalar MultiCell_Standalone.gnb1.sctp "Congestion Window 6:10.0.3.2:endtime" nan
scalar MultiCell_Standalone.gnb1.sctp "Bandwidth 6:10.0.3.2:count" 0
scalar MultiCell_Standalone.gnb1.sctp "Bandwidth 6:10.0.3.2:sum" 0
scalar MultiCell_Standalone.gnb1.sctp "Bandwidth 6:10.0.3.2:sumweights" 0
scalar MultiCell_Standalone.gnb1.sctp "Bandwidth 6:10.0.3.2:mean" -nan
scalar MultiCell_Standalone.gnb1.sctp "Bandwidth 6:10.0.3.2:stddev" nan
scalar MultiCell_Standalone.gnb1.sctp "Bandwidth 6:10.0.3.2:min" inf
scalar MultiCell_Standalone.gnb1.sctp "Bandwidth 6:10.0.3.2:max" -inf
scalar MultiCell_Standalone.gnb1.sctp "Bandwidth 6:10.0.3.2:starttime" nan
scalar MultiCell_Standalone.gnb1.sctp "Bandwidth 6:10.0.3.2:endtime" nan
scalar MultiCell_Standalone.gnb1.sctp "RTO 6:10.0.3.2:count" 0
scalar MultiCell_Standalone.gnb1.sctp "RTO 6:10.0.3.2:sum" 0
scalar MultiCell_Standalone.gnb1.sctp "RTO 6:10.0.3.2:sumweights" 0
scalar MultiCell_Standalone.gnb1.sctp "RTO 6:10.0.3.2:mean" -nan
scalar MultiCell_Standalone.gnb1.sctp "RTO 6:10.0.3.2:stddev" nan
scalar MultiCell_Standalone.gnb1.sctp "RTO 6:10.0.3.2:min" inf
scalar MultiCell_Standalone.gnb1.sctp "RTO 6:10.0.3.2:max" -inf
scalar MultiCell_Standalone.gnb1.sctp "RTO 6:10.0.3.2:starttime" nan
scalar MultiCell_Standalone.gnb1.sctp "RTO 6:10.0.3.2:endtime" nan
scalar MultiCell_Standalone.gnb1.sctp "Slow Start Threshold 6:10.0.4.2:count" 0
scalar MultiCell_Standalone.gnb1.sctp "Slow Start Threshold 6:10.0.4.2:sum" 0
scalar MultiCell_Standalone.gnb1.sctp "Slow Start Threshold 6:10.0.4.2:sumweights" 0
scalar MultiCell_Standalone.gnb1.sctp "Slow Start Threshold 6:10.0.4.2:mean" -nan
scalar MultiCell_Standalone.gnb1.sctp "Slow Start Threshold 6:10.0.4.2:stddev" nan
scalar MultiCell_Standalone.gnb1.sctp "Slow Start Threshold 6:10.0.4.2:min" inf
scalar MultiCell_Standalone.gnb1.sctp "Slow Start Threshold 6:10.0.4.2:max" -inf
scalar MultiCell_Standalone.gnb1.sctp "Slow Start Threshold 6:10.0.4.2:starttime" nan
scalar MultiCell_Standalone.gnb1.sctp "Slow Start Threshold 6:10.0.4.2:endtime" nan
scalar MultiCell_Standalone.gnb1.sctp "Congestion Window 6:10.0.4.2:count" 0
scalar MultiCell_Standalone.gnb1.sctp "Congestion Window 6:10.0.4.2:sum" 0
scalar MultiCell_Standalone.gnb1.sctp "Congestion Window 6:10.0.4.2:sumweights" 0
scalar MultiCell_Standalone.gnb1.sctp "Congestion Window 6:10.0.4.2:mean" -nan
scalar MultiCell_Standalone.gnb1.sctp "Congestion Window 6:10.0.4.2:stddev" nan
scalar MultiCell_Standalone.gnb1.sctp "Congestion Window 6:10.0.4.2:min" inf
scalar MultiCell_Standalone.gnb1.sctp "Congestion Window 6:10.0.4.2:max" -inf
scalar MultiCell_Standalone.gnb1.sctp "Congestion Window 6:10.0.4.2:starttime" nan
scalar MultiCell_Standalone.gnb1.sctp "Congestion Window 6:10.0.4.2:endtime" nan
scalar MultiCell_Standalone.gnb1.sctp "Bandwidth 6:10.0.4.2:count" 0
scalar MultiCell_Standalone.gnb1.sctp "Bandwidth 6:10.0.4.2:sum" 0
scalar MultiCell_Standalone.gnb1.sctp "Bandwidth 6:10.0.4.2:sumweights" 0
scalar MultiCell_Standalone.gnb1.sctp "Bandwidth 6:10.0.4.2:mean" -nan
scalar MultiCell_Standalone.gnb1.sctp "Bandwidth 6:10.0.4.2:stddev" nan
scalar MultiCell_Standalone.gnb1.sctp "Bandwidth 6:10.0.4.2:min" inf
scalar MultiCell_Standalone.gnb1.sctp "Bandwidth 6:10.0.4.2:max" -inf
scalar MultiCell_Standalone.gnb1.sctp "Bandwidth 6:10.0.4.2:starttime" nan
scalar MultiCell_Standalone.gnb1.sctp "Bandwidth 6:10.0.4.2:endtime" nan
scalar MultiCell_Standalone.gnb1.sctp "RTO 6:10.0.4.2:count" 0
scalar MultiCell_Standalone.gnb1.sctp "RTO 6:10.0.4.2:sum" 0
scalar MultiCell_Standalone.gnb1.sctp "RTO 6:10.0.4.2:sumweights" 0
scalar MultiCell_Standalone.gnb1.sctp "RTO 6:10.0.4.2:mean" -nan
scalar MultiCell_Standalone.gnb1.sctp "RTO 6:10.0.4.2:stddev" nan
scalar MultiCell_Standalone.gnb1.sctp "RTO 6:10.0.4.2:min" inf
scalar MultiCell_Standalone.gnb1.sctp "RTO 6:10.0.4.2:max" -inf
scalar MultiCell_Standalone.gnb1.sctp "RTO 6:10.0.4.2:starttime" nan
scalar MultiCell_Standalone.gnb1.sctp "RTO 6:10.0.4.2:endtime" nan
scalar MultiCell_Standalone.gnb1.sctp "Slow Start Threshold 6:192.168.5.1:count" 0
scalar MultiCell_Standalone.gnb1.sctp "Slow Start Threshold 6:192.168.5.1:sum" 0
scalar MultiCell_Standalone.gnb1.sctp "Slow Start Threshold 6:192.168.5.1:sumweights" 0
scalar MultiCell_Standalone.gnb1.sctp "Slow Start Threshold 6:192.168.5.1:mean" -nan
scalar MultiCell_Standalone.gnb1.sctp "Slow Start Threshold 6:192.168.5.1:stddev" nan
scalar MultiCell_Standalone.gnb1.sctp "Slow Start Threshold 6:192.168.5.1:min" inf
scalar MultiCell_Standalone.gnb1.sctp "Slow Start Threshold 6:192.168.5.1:max" -inf
scalar MultiCell_Standalone.gnb1.sctp "Slow Start Threshold 6:192.168.5.1:starttime" nan
scalar MultiCell_Standalone.gnb1.sctp "Slow Start Threshold 6:192.168.5.1:endtime" nan
scalar MultiCell_Standalone.gnb1.sctp "Congestion Window 6:192.168.5.1:count" 0
scalar MultiCell_Standalone.gnb1.sctp "Congestion Window 6:192.168.5.1:sum" 0
scalar MultiCell_Standalone.gnb1.sctp "Congestion Window 6:192.168.5.1:sumweights" 0
scalar MultiCell_Standalone.gnb1.sctp "Congestion Window 6:192.168.5.1:mean" -nan
scalar MultiCell_Standalone.gnb1.sctp "Congestion Window 6:192.168.5.1:stddev" nan
scalar MultiCell_Standalone.gnb1.sctp "Congestion Window 6:192.168.5.1:min" inf
scalar MultiCell_Standalone.gnb1.sctp "Congestion Window 6:192.168.5.1:max" -inf
scalar MultiCell_Standalone.gnb1.sctp "Congestion Window 6:192.168.5.1:starttime" nan
scalar MultiCell_Standalone.gnb1.sctp "Congestion Window 6:192.168.5.1:endtime" nan
scalar MultiCell_Standalone.gnb1.sctp "Bandwidth 6:192.168.5.1:count" 0
scalar MultiCell_Standalone.gnb1.sctp "Bandwidth 6:192.168.5.1:sum" 0
scalar MultiCell_Standalone.gnb1.sctp "Bandwidth 6:192.168.5.1:sumweights" 0
scalar MultiCell_Standalone.gnb1.sctp "Bandwidth 6:192.168.5.1:mean" -nan
scalar MultiCell_Standalone.gnb1.sctp "Bandwidth 6:192.168.5.1:stddev" nan
scalar MultiCell_Standalone.gnb1.sctp "Bandwidth 6:192.168.5.1:min" inf
scalar MultiCell_Standalone.gnb1.sctp "Bandwidth 6:192.168.5.1:max" -inf
scalar MultiCell_Standalone.gnb1.sctp "Bandwidth 6:192.168.5.1:starttime" nan
scalar MultiCell_Standalone.gnb1.sctp "Bandwidth 6:192.168.5.1:endtime" nan
scalar MultiCell_Standalone.gnb1.sctp "RTO 6:192.168.5.1:count" 0
scalar MultiCell_Standalone.gnb1.sctp "RTO 6:192.168.5.1:sum" 0
scalar MultiCell_Standalone.gnb1.sctp "RTO 6:192.168.5.1:sumweights" 0
scalar MultiCell_Standalone.gnb1.sctp "RTO 6:192.168.5.1:mean" -nan
scalar MultiCell_Standalone.gnb1.sctp "RTO 6:192.168.5.1:stddev" nan
scalar MultiCell_Standalone.gnb1.sctp "RTO 6:192.168.5.1:min" inf
scalar MultiCell_Standalone.gnb1.sctp "RTO 6:192.168.5.1:max" -inf
scalar MultiCell_Standalone.gnb1.sctp "RTO 6:192.168.5.1:starttime" nan
scalar MultiCell_Standalone.gnb1.sctp "RTO 6:192.168.5.1:endtime" nan
scalar MultiCell_Standalone.gnb2.sctp "Slow Start Threshold 10:10.0.1.2:count" 0
scalar MultiCell_Standalone.gnb2.sctp "Slow Start Threshold 10:10.0.1.2:sum" 0
scalar MultiCell_Standalone.gnb2.sctp "Slow Start Threshold 10:10.0.1.2:sumweights" 0
scalar MultiCell_Standalone.gnb2.sctp "Slow Start Threshold 10:10.0.1.2:mean" -nan
scalar MultiCell_Standalone.gnb2.sctp "Slow Start Threshold 10:10.0.1.2:stddev" nan
scalar MultiCell_Standalone.gnb2.sctp "Slow Start Threshold 10:10.0.1.2:min" inf
scalar MultiCell_Standalone.gnb2.sctp "Slow Start Threshold 10:10.0.1.2:max" -inf
scalar MultiCell_Standalone.gnb2.sctp "Slow Start Threshold 10:10.0.1.2:starttime" nan
scalar MultiCell_Standalone.gnb2.sctp "Slow Start Threshold 10:10.0.1.2:endtime" nan
scalar MultiCell_Standalone.gnb2.sctp "Congestion Window 10:10.0.1.2:count" 0
scalar MultiCell_Standalone.gnb2.sctp "Congestion Window 10:10.0.1.2:sum" 0
scalar MultiCell_Standalone.gnb2.sctp "Congestion Window 10:10.0.1.2:sumweights" 0
scalar MultiCell_Standalone.gnb2.sctp "Congestion Window 10:10.0.1.2:mean" -nan
scalar MultiCell_Standalone.gnb2.sctp "Congestion Window 10:10.0.1.2:stddev" nan
scalar MultiCell_Standalone.gnb2.sctp "Congestion Window 10:10.0.1.2:min" inf
scalar MultiCell_Standalone.gnb2.sctp "Congestion Window 10:10.0.1.2:max" -inf
scalar MultiCell_Standalone.gnb2.sctp "Congestion Window 10:10.0.1.2:starttime" nan
scalar MultiCell_Standalone.gnb2.sctp "Congestion Window 10:10.0.1.2:endtime" nan
scalar MultiCell_Standalone.gnb2.sctp "Bandwidth 10:10.0.1.2:count" 0
scalar MultiCell_Standalone.gnb2.sctp "Bandwidth 10:10.0.1.2:sum" 0
scalar MultiCell_Standalone.gnb2.sctp "Bandwidth 10:10.0.1.2:sumweights" 0
scalar MultiCell_Standalone.gnb2.sctp "Bandwidth 10:10.0.1.2:mean" -nan
scalar MultiCell_Standalone.gnb2.sctp "Bandwidth 10:10.0.1.2:stddev" nan
scalar MultiCell_Standalone.gnb2.sctp "Bandwidth 10:10.0.1.2:min" inf
scalar MultiCell_Standalone.gnb2.sctp "Bandwidth 10:10.0.1.2:max" -inf
scalar MultiCell_Standalone.gnb2.sctp "Bandwidth 10:10.0.1.2:starttime" nan
scalar MultiCell_Standalone.gnb2.sctp "Bandwidth 10:10.0.1.2:endtime" nan
scalar MultiCell_Standalone.gnb2.sctp "RTO 10:10.0.1.2:count" 0
scalar MultiCell_Standalone.gnb2.sctp "RTO 10:10.0.1.2:sum" 0
scalar MultiCell_Standalone.gnb2.sctp "RTO 10:10.0.1.2:sumweights" 0
scalar MultiCell_Standalone.gnb2.sctp "RTO 10:10.0.1.2:mean" -nan
scalar MultiCell_Standalone.gnb2.sctp "RTO 10:10.0.1.2:stddev" nan
scalar MultiCell_Standalone.gnb2.sctp "RTO 10:10.0.1.2:min" inf
scalar MultiCell_Standalone.gnb2.sctp "RTO 10:10.0.1.2:max" -inf
scalar MultiCell_Standalone.gnb2.sctp "RTO 10:10.0.1.2:starttime" nan
scalar MultiCell_Standalone.gnb2.sctp "RTO 10:10.0.1.2:endtime" nan
scalar MultiCell_Standalone.gnb2.sctp "Slow Start Threshold 10:10.0.3.1:count" 0
scalar MultiCell_Standalone.gnb2.sctp "Slow Start Threshold 10:10.0.3.1:sum" 0
scalar MultiCell_Standalone.gnb2.sctp "Slow Start Threshold 10:10.0.3.1:sumweights" 0
scalar MultiCell_Standalone.gnb2.sctp "Slow Start Threshold 10:10.0.3.1:mean" -nan
scalar MultiCell_Standalone.gnb2.sctp "Slow Start Threshold 10:10.0.3.1:stddev" nan
scalar MultiCell_Standalone.gnb2.sctp "Slow Start Threshold 10:10.0.3.1:min" inf
scalar MultiCell_Standalone.gnb2.sctp "Slow Start Threshold 10:10.0.3.1:max" -inf
scalar MultiCell_Standalone.gnb2.sctp "Slow Start Threshold 10:10.0.3.1:starttime" nan
scalar MultiCell_Standalone.gnb2.sctp "Slow Start Threshold 10:10.0.3.1:endtime" nan
scalar MultiCell_Standalone.gnb2.sctp "Congestion Window 10:10.0.3.1:count" 0
scalar MultiCell_Standalone.gnb2.sctp "Congestion Window 10:10.0.3.1:sum" 0
scalar MultiCell_Standalone.gnb2.sctp "Congestion Window 10:10.0.3.1:sumweights" 0
scalar MultiCell_Standalone.gnb2.sctp "Congestion Window 10:10.0.3.1:mean" -nan
scalar MultiCell_Standalone.gnb2.sctp "Congestion Window 10:10.0.3.1:stddev" nan
scalar MultiCell_Standalone.gnb2.sctp "Congestion Window 10:10.0.3.1:min" inf
scalar MultiCell_Standalone.gnb2.sctp "Congestion Window 10:10.0.3.1:max" -inf
scalar MultiCell_Standalone.gnb2.sctp "Congestion Window 10:10.0.3.1:starttime" nan
scalar MultiCell_Standalone.gnb2.sctp "Congestion Window 10:10.0.3.1:endtime" nan
scalar MultiCell_Standalone.gnb2.sctp "Bandwidth 10:10.0.3.1:count" 0
scalar MultiCell_Standalone.gnb2.sctp "Bandwidth 10:10.0.3.1:sum" 0
scalar MultiCell_Standalone.gnb2.sctp "Bandwidth 10:10.0.3.1:sumweights" 0
scalar MultiCell_Standalone.gnb2.sctp "Bandwidth 10:10.0.3.1:mean" -nan
scalar MultiCell_Standalone.gnb2.sctp "Bandwidth 10:10.0.3.1:stddev" nan
scalar MultiCell_Standalone.gnb2.sctp "Bandwidth 10:10.0.3.1:min" inf
scalar MultiCell_Standalone.gnb2.sctp "Bandwidth 10:10.0.3.1:max" -inf
scalar MultiCell_Standalone.gnb2.sctp "Bandwidth 10:10.0.3.1:starttime" nan
scalar MultiCell_Standalone.gnb2.sctp "Bandwidth 10:10.0.3.1:endtime" nan
scalar MultiCell_Standalone.gnb2.sctp "RTO 10:10.0.3.1:count" 0
scalar MultiCell_Standalone.gnb2.sctp "RTO 10:10.0.3.1:sum" 0
scalar MultiCell_Standalone.gnb2.sctp "RTO 10:10.0.3.1:sumweights" 0
scalar MultiCell_Standalone.gnb2.sctp "RTO 10:10.0.3.1:mean" -nan
scalar MultiCell_Standalone.gnb2.sctp "RTO 10:10.0.3.1:stddev" nan
scalar MultiCell_Standalone.gnb2.sctp "RTO 10:10.0.3.1:min" inf
scalar MultiCell_Standalone.gnb2.sctp "RTO 10:10.0.3.1:max" -inf
scalar MultiCell_Standalone.gnb2.sctp "RTO 10:10.0.3.1:starttime" nan
scalar MultiCell_Standalone.gnb2.sctp "RTO 10:10.0.3.1:endtime" nan
scalar MultiCell_Standalone.gnb2.sctp "Slow Start Threshold 10:10.0.4.1:count" 0
scalar MultiCell_Standalone.gnb2.sctp "Slow Start Threshold 10:10.0.4.1:sum" 0
scalar MultiCell_Standalone.gnb2.sctp "Slow Start Threshold 10:10.0.4.1:sumweights" 0
scalar MultiCell_Standalone.gnb2.sctp "Slow Start Threshold 10:10.0.4.1:mean" -nan
scalar MultiCell_Standalone.gnb2.sctp "Slow Start Threshold 10:10.0.4.1:stddev" nan
scalar MultiCell_Standalone.gnb2.sctp "Slow Start Threshold 10:10.0.4.1:min" inf
scalar MultiCell_Standalone.gnb2.sctp "Slow Start Threshold 10:10.0.4.1:max" -inf
scalar MultiCell_Standalone.gnb2.sctp "Slow Start Threshold 10:10.0.4.1:starttime" nan
scalar MultiCell_Standalone.gnb2.sctp "Slow Start Threshold 10:10.0.4.1:endtime" nan
scalar MultiCell_Standalone.gnb2.sctp "Congestion Window 10:10.0.4.1:count" 0
scalar MultiCell_Standalone.gnb2.sctp "Congestion Window 10:10.0.4.1:sum" 0
scalar MultiCell_Standalone.gnb2.sctp "Congestion Window 10:10.0.4.1:sumweights" 0
scalar MultiCell_Standalone.gnb2.sctp "Congestion Window 10:10.0.4.1:mean" -nan
scalar MultiCell_Standalone.gnb2.sctp "Congestion Window 10:10.0.4.1:stddev" nan
scalar MultiCell_Standalone.gnb2.sctp "Congestion Window 10:10.0.4.1:min" inf
scalar MultiCell_Standalone.gnb2.sctp "Congestion Window 10:10.0.4.1:max" -inf
scalar MultiCell_Standalone.gnb2.sctp "Congestion Window 10:10.0.4.1:starttime" nan
scalar MultiCell_Standalone.gnb2.sctp "Congestion Window 10:10.0.4.1:endtime" nan
scalar MultiCell_Standalone.gnb2.sctp "Bandwidth 10:10.0.4.1:count" 0
scalar MultiCell_Standalone.gnb2.sctp "Bandwidth 10:10.0.4.1:sum" 0
scalar MultiCell_Standalone.gnb2.sctp "Bandwidth 10:10.0.4.1:sumweights" 0
scalar MultiCell_Standalone.gnb2.sctp "Bandwidth 10:10.0.4.1:mean" -nan
scalar MultiCell_Standalone.gnb2.sctp "Bandwidth 10:10.0.4.1:stddev" nan
scalar MultiCell_Standalone.gnb2.sctp "Bandwidth 10:10.0.4.1:min" inf
scalar MultiCell_Standalone.gnb2.sctp "Bandwidth 10:10.0.4.1:max" -inf
scalar MultiCell_Standalone.gnb2.sctp "Bandwidth 10:10.0.4.1:starttime" nan
scalar MultiCell_Standalone.gnb2.sctp "Bandwidth 10:10.0.4.1:endtime" nan
scalar MultiCell_Standalone.gnb2.sctp "RTO 10:10.0.4.1:count" 0
scalar MultiCell_Standalone.gnb2.sctp "RTO 10:10.0.4.1:sum" 0
scalar MultiCell_Standalone.gnb2.sctp "RTO 10:10.0.4.1:sumweights" 0
scalar MultiCell_Standalone.gnb2.sctp "RTO 10:10.0.4.1:mean" -nan
scalar MultiCell_Standalone.gnb2.sctp "RTO 10:10.0.4.1:stddev" nan
scalar MultiCell_Standalone.gnb2.sctp "RTO 10:10.0.4.1:min" inf
scalar MultiCell_Standalone.gnb2.sctp "RTO 10:10.0.4.1:max" -inf
scalar MultiCell_Standalone.gnb2.sctp "RTO 10:10.0.4.1:starttime" nan
scalar MultiCell_Standalone.gnb2.sctp "RTO 10:10.0.4.1:endtime" nan
scalar MultiCell_Standalone.gnb2.sctp "Slow Start Threshold 10:192.168.4.1:count" 0
scalar MultiCell_Standalone.gnb2.sctp "Slow Start Threshold 10:192.168.4.1:sum" 0
scalar MultiCell_Standalone.gnb2.sctp "Slow Start Threshold 10:192.168.4.1:sumweights" 0
scalar MultiCell_Standalone.gnb2.sctp "Slow Start Threshold 10:192.168.4.1:mean" -nan
scalar MultiCell_Standalone.gnb2.sctp "Slow Start Threshold 10:192.168.4.1:stddev" nan
scalar MultiCell_Standalone.gnb2.sctp "Slow Start Threshold 10:192.168.4.1:min" inf
scalar MultiCell_Standalone.gnb2.sctp "Slow Start Threshold 10:192.168.4.1:max" -inf
scalar MultiCell_Standalone.gnb2.sctp "Slow Start Threshold 10:192.168.4.1:starttime" nan
scalar MultiCell_Standalone.gnb2.sctp "Slow Start Threshold 10:192.168.4.1:endtime" nan
scalar MultiCell_Standalone.gnb2.sctp "Congestion Window 10:192.168.4.1:count" 0
scalar MultiCell_Standalone.gnb2.sctp "Congestion Window 10:192.168.4.1:sum" 0
scalar MultiCell_Standalone.gnb2.sctp "Congestion Window 10:192.168.4.1:sumweights" 0
scalar MultiCell_Standalone.gnb2.sctp "Congestion Window 10:192.168.4.1:mean" -nan
scalar MultiCell_Standalone.gnb2.sctp "Congestion Window 10:192.168.4.1:stddev" nan
scalar MultiCell_Standalone.gnb2.sctp "Congestion Window 10:192.168.4.1:min" inf
scalar MultiCell_Standalone.gnb2.sctp "Congestion Window 10:192.168.4.1:max" -inf
scalar MultiCell_Standalone.gnb2.sctp "Congestion Window 10:192.168.4.1:starttime" nan
scalar MultiCell_Standalone.gnb2.sctp "Congestion Window 10:192.168.4.1:endtime" nan
scalar MultiCell_Standalone.gnb2.sctp "Bandwidth 10:192.168.4.1:count" 0
scalar MultiCell_Standalone.gnb2.sctp "Bandwidth 10:192.168.4.1:sum" 0
scalar MultiCell_Standalone.gnb2.sctp "Bandwidth 10:192.168.4.1:sumweights" 0
scalar MultiCell_Standalone.gnb2.sctp "Bandwidth 10:192.168.4.1:mean" -nan
scalar MultiCell_Standalone.gnb2.sctp "Bandwidth 10:192.168.4.1:stddev" nan
scalar MultiCell_Standalone.gnb2.sctp "Bandwidth 10:192.168.4.1:min" inf
scalar MultiCell_Standalone.gnb2.sctp "Bandwidth 10:192.168.4.1:max" -inf
scalar MultiCell_Standalone.gnb2.sctp "Bandwidth 10:192.168.4.1:starttime" nan
scalar MultiCell_Standalone.gnb2.sctp "Bandwidth 10:192.168.4.1:endtime" nan
scalar MultiCell_Standalone.gnb2.sctp "RTO 10:192.168.4.1:count" 0
scalar MultiCell_Standalone.gnb2.sctp "RTO 10:192.168.4.1:sum" 0
scalar MultiCell_Standalone.gnb2.sctp "RTO 10:192.168.4.1:sumweights" 0
scalar MultiCell_Standalone.gnb2.sctp "RTO 10:192.168.4.1:mean" -nan
scalar MultiCell_Standalone.gnb2.sctp "RTO 10:192.168.4.1:stddev" nan
scalar MultiCell_Standalone.gnb2.sctp "RTO 10:192.168.4.1:min" inf
scalar MultiCell_Standalone.gnb2.sctp "RTO 10:192.168.4.1:max" -inf
scalar MultiCell_Standalone.gnb2.sctp "RTO 10:192.168.4.1:starttime" nan
scalar MultiCell_Standalone.gnb2.sctp "RTO 10:192.168.4.1:endtime" nan

