version 3
run CBR-DL-0-20260712-21:01:53-254068
attr configname CBR-DL
attr datetime 20260712-21:01:53
attr datetimef 20260712-210153
attr experiment CBR-DL
attr inifile omnetpp.ini
attr iterationvars "$u=0, $numRbs=50, $numUEs=1"
attr iterationvarsd u=0/numRbs=50/numUEs=1
attr iterationvarsf u=0,numRbs=50,numUEs=1-
attr measurement "$u=0, $numRbs=50, $numUEs=1"
attr network simu5g.simulations.nr.networks.MultiCell_Standalone
attr processid 254068
attr repetition 0
attr replication #0
attr resultdir results
attr runnumber 0
attr seedset 0
itervar numRbs 50
itervar numUEs 1
itervar u 0
config **.param-recording false
config image-path /home/andras/projects/Simu5G-fork/simu5g-fork/images
config output-scalar-file results/omnetpp.ini-CBR-DL-#0.sca
config output-scalar-precision 17
config output-vector-file results/omnetpp.ini-CBR-DL-#0.vec
config output-vector-precision 17
config record-eventlog false
config sim-time-limit 20s
config extends MultiCell
config description "CBR DL traffic from remote server to UEs"
config *.ue[*].numApps 1
config *.server.numApps 1
config *.ue[*].app[*].typename CbrReceiver
config *.ue[*].app[*].localPort 3000
config *.server.app[*].typename CbrSender
config *.server.app[*].packetSize 100B
config *.server.app[*].samplingTime 0.02s
config *.server.app[*].destAddress "\"ue[\" + string(ancestorIndex(0)) + \"]\""
config *.server.app[*].destPort 3000
config *.server.app[*].localPort 3088+ancestorIndex(0)
config *.server.app[*].startTime uniform(0s,0.02s)
config *.server.app[*].finishTime uniform(19.9s,19.92s)
config network simu5g.simulations.nr.networks.MultiCell_Standalone
config sim-time-limit 20s
config description "Base configuration, do not run this config!"
config **.mobility.constraintAreaMaxX 1000m
config **.mobility.constraintAreaMaxY 750m
config **.mobility.constraintAreaMinX 0m
config **.mobility.constraintAreaMinY 250m
config **.mobility.constraintAreaMinZ 0m
config **.mobility.constraintAreaMaxZ 0m
config **.mobility.initFromDisplayString false
config *.carrierAggregation.numComponentCarriers 1
config *.carrierAggregation.componentCarrier[0].numerologyIndex 0
config *.carrierAggregation.componentCarrier[0].carrierFrequency 2GHz
config *.carrierAggregation.componentCarrier[0].numBands 50
config *.gnb*.cellularNic.numCarriers 1
config *.gnb*.cellularNic.channelModel[0].componentCarrierModule "\"carrierAggregation.componentCarrier[0]\""
config *.ue[*].cellularNic.numCarriers 1
config *.ue[*].cellularNic.nrChannelModel[0].componentCarrierModule "\"carrierAggregation.componentCarrier[0]\""
config *.gnb1.mobility.initialX 250m
config *.gnb1.mobility.initialY 500m
config *.gnb2.mobility.initialX 750m
config *.gnb2.mobility.initialY 500m
config *.gnb*.numX2Apps 1
config *.gnb*.x2App[*].server.localPort "5000 + ancestorIndex(1)"
config *.gnb1.x2App[0].client.connectAddress "\"gnb2%x2ppp0\""
config *.gnb2.x2App[0].client.connectAddress "\"gnb1%x2ppp0\""
config *.numUe 1
config *.ue[*].servingNodeId 0
config *.ue[*].nrServingNodeId 1
config **.dynamicCellAssociation true
config **.enableHandover true
config *.ue[*].mobility.typename LinearMobility
config *.ue[*].mobility.initialX uniform(0m,1000m)
config *.ue[*].mobility.initialY uniform(250m,750m)
config *.ue[*].mobility.speed uniform(3mps,13.89mps)
config **.routingRecorder.enabled false
config output-scalar-file "results/CBR-DL/$u=0, $numRbs=50, $numUEs=1-0.sca"
config output-vector-file "results/CBR-DL/$u=0, $numRbs=50, $numUEs=1-0.vec"
config seed-set 0
config **.sctp.**.scalar-recording false
config **.sctp.**.vector-recording false
config **.vector-recording true
config **.sctp.nagleEnabled false
config **.sctp.enableHeartbeats false
config **.downlinkInterference true
config **.uplinkInterference true
config **.ueTxPower 26dBm
config **.eNodeBTxPower 46dBm
config **.targetBler 0.01
config **.blerShift 5
config **.fbPeriod 40tti
config *.configurator.config "xmldoc(\"./demo.xml\")"

scalar MultiCell_Standalone.gnb1.x2App[0].client ums 1452
scalar MultiCell_Standalone.gnb2.x2App[0].client ums 1452
scalar MultiCell_Standalone.server.lo[0].lo rcvdPkFromHl:count 0
scalar MultiCell_Standalone.server.lo[0].lo rcvdPkFromHl:sum(packetBytes) 0
scalar MultiCell_Standalone.server.lo[0].lo passedUpPk:count 0
scalar MultiCell_Standalone.server.lo[0].lo passedUpPk:sum(packetBytes) 0
scalar MultiCell_Standalone.server.lo[0] packetDropInterfaceDown:count 0
scalar MultiCell_Standalone.server.lo[0] packetDropInterfaceDown:sum(packetBytes) 0
scalar MultiCell_Standalone.server.lo[0] packetDropNoCarrier:count 0
scalar MultiCell_Standalone.server.lo[0] packetDropNoCarrier:sum(packetBytes) 0
scalar MultiCell_Standalone.server.ppp[0].queue queueLength:last 0
scalar MultiCell_Standalone.server.ppp[0].queue queueLength:max 0
scalar MultiCell_Standalone.server.ppp[0].queue queueLength:timeavg 0
scalar MultiCell_Standalone.server.ppp[0].queue queueBitLength:last 0
scalar MultiCell_Standalone.server.ppp[0].queue queueBitLength:max 0
scalar MultiCell_Standalone.server.ppp[0].queue queueBitLength:timeavg 0
scalar MultiCell_Standalone.server.ppp[0].queue outgoingPackets:count 995
scalar MultiCell_Standalone.server.ppp[0].queue outgoingPacketLengths:sum 1018880
scalar MultiCell_Standalone.server.ppp[0].queue incomingPackets:count 995
scalar MultiCell_Standalone.server.ppp[0].queue incomingPacketLengths:sum 1018880
scalar MultiCell_Standalone.server.ppp[0].queue droppedPacketsQueueOverflow:count 0
scalar MultiCell_Standalone.server.ppp[0].queue droppedPacketLengthsQueueOverflow:sum 0
scalar MultiCell_Standalone.server.ppp[0].ppp transmissionState:timeavg 5.3730000000001288e-06
scalar MultiCell_Standalone.server.ppp[0].ppp rxPkOk:count 0
scalar MultiCell_Standalone.server.ppp[0].ppp rxPkOk:sum(packetBytes) 0
scalar MultiCell_Standalone.server.ppp[0].ppp txPk:count 995
scalar MultiCell_Standalone.server.ppp[0].ppp txPk:sum(packetBytes) 134325
scalar MultiCell_Standalone.server.ppp[0].ppp rcvdPkFromHl:count 995
scalar MultiCell_Standalone.server.ppp[0].ppp rcvdPkFromHl:sum(packetBytes) 127360
scalar MultiCell_Standalone.server.ppp[0].ppp passedUpPk:count 0
scalar MultiCell_Standalone.server.ppp[0].ppp passedUpPk:sum(packetBytes) 0
scalar MultiCell_Standalone.server.ppp[0].ppp packetDropIncorrectlyReceived:count 0
scalar MultiCell_Standalone.server.ppp[0].ppp packetDropIncorrectlyReceived:sum(packetBytes) 0
scalar MultiCell_Standalone.server.ppp[0].ppp packetDropInterfaceDown:count 0
scalar MultiCell_Standalone.server.ppp[0].ppp packetDropInterfaceDown:sum(packetBytes) 0
scalar MultiCell_Standalone.server.ppp[0] packetDropInterfaceDown:count 0
scalar MultiCell_Standalone.server.ppp[0] packetDropInterfaceDown:sum(packetBytes) 0
scalar MultiCell_Standalone.server.ppp[0] packetDropNoCarrier:count 0
scalar MultiCell_Standalone.server.ppp[0] packetDropNoCarrier:sum(packetBytes) 0
scalar MultiCell_Standalone.server.ipv4.ip packetDropAddressResolutionFailed:count 0
scalar MultiCell_Standalone.server.ipv4.ip packetDropAddressResolutionFailed:sum(packetBytes) 0
scalar MultiCell_Standalone.server.ipv4.ip packetDropHopLimitReached:count 0
scalar MultiCell_Standalone.server.ipv4.ip packetDropHopLimitReached:sum(packetBytes) 0
scalar MultiCell_Standalone.server.ipv4.ip packetDropForwardingDisabled:count 0
scalar MultiCell_Standalone.server.ipv4.ip packetDropForwardingDisabled:sum(packetBytes) 0
scalar MultiCell_Standalone.server.ipv4.ip packetDropNoInterfaceFound:count 0
scalar MultiCell_Standalone.server.ipv4.ip packetDropNoInterfaceFound:sum(packetBytes) 0
scalar MultiCell_Standalone.server.ipv4.ip packetDropNoRouteFound:count 0
scalar MultiCell_Standalone.server.ipv4.ip packetDropNoRouteFound:sum(packetBytes) 0
scalar MultiCell_Standalone.server.ipv4.ip packetDropUndefined:count 0
scalar MultiCell_Standalone.server.ipv4.ip packetDropUndefined:sum(packetBytes) 0
scalar MultiCell_Standalone.server.ipv4.arp arpResolutionFailed:count 0
scalar MultiCell_Standalone.server.ipv4.arp arpResolutionCompleted:count 0
scalar MultiCell_Standalone.server.ipv4.arp arpResolutionInitiated:count 0
scalar MultiCell_Standalone.server.ipv4.arp arpReplySent:count 0
scalar MultiCell_Standalone.server.ipv4.arp arpReplySent:sum(packetBytes) 0
scalar MultiCell_Standalone.server.ipv4.arp arpRequestSent:count 0
scalar MultiCell_Standalone.server.ipv4.arp arpRequestSent:sum(packetBytes) 0
scalar MultiCell_Standalone.server.udp packetReceived:count 0
scalar MultiCell_Standalone.server.udp packetReceived:sum(packetBytes) 0
scalar MultiCell_Standalone.server.udp packetSent:count 995
scalar MultiCell_Standalone.server.udp packetSent:sum(packetBytes) 107460
scalar MultiCell_Standalone.server.udp passedUpPk:count 0
scalar MultiCell_Standalone.server.udp droppedPkWrongPort:count 0
scalar MultiCell_Standalone.server.udp droppedPkBadChecksum:count 0
scalar MultiCell_Standalone.server.app[0] cbrGeneratedBytes:mean 100
scalar MultiCell_Standalone.server.app[0] cbrGeneratedBytes:last(sumPerDuration) 5000.9473227955741
scalar MultiCell_Standalone.server.app[0] cbrGeneratedThroughput:simu5g_rateavg 4975
scalar MultiCell_Standalone.router.lo[0].lo rcvdPkFromHl:count 0
scalar MultiCell_Standalone.router.lo[0].lo rcvdPkFromHl:sum(packetBytes) 0
scalar MultiCell_Standalone.router.lo[0].lo passedUpPk:count 0
scalar MultiCell_Standalone.router.lo[0].lo passedUpPk:sum(packetBytes) 0
scalar MultiCell_Standalone.router.lo[0] packetDropInterfaceDown:count 0
scalar MultiCell_Standalone.router.lo[0] packetDropInterfaceDown:sum(packetBytes) 0
scalar MultiCell_Standalone.router.lo[0] packetDropNoCarrier:count 0
scalar MultiCell_Standalone.router.lo[0] packetDropNoCarrier:sum(packetBytes) 0
scalar MultiCell_Standalone.router.ppp[0].queue queueLength:last 0
scalar MultiCell_Standalone.router.ppp[0].queue queueLength:max 0
scalar MultiCell_Standalone.router.ppp[0].queue queueLength:timeavg 0
scalar MultiCell_Standalone.router.ppp[0].queue queueBitLength:last 0
scalar MultiCell_Standalone.router.ppp[0].queue queueBitLength:max 0
scalar MultiCell_Standalone.router.ppp[0].queue queueBitLength:timeavg 0
scalar MultiCell_Standalone.router.ppp[0].queue outgoingPackets:count 0
scalar MultiCell_Standalone.router.ppp[0].queue outgoingPacketLengths:sum 0
scalar MultiCell_Standalone.router.ppp[0].queue incomingPackets:count 0
scalar MultiCell_Standalone.router.ppp[0].queue incomingPacketLengths:sum 0
scalar MultiCell_Standalone.router.ppp[0].queue droppedPacketsQueueOverflow:count 0
scalar MultiCell_Standalone.router.ppp[0].queue droppedPacketLengthsQueueOverflow:sum 0
scalar MultiCell_Standalone.router.ppp[0].ppp transmissionState:timeavg 0
scalar MultiCell_Standalone.router.ppp[0].ppp rxPkOk:count 995
scalar MultiCell_Standalone.router.ppp[0].ppp rxPkOk:sum(packetBytes) 134325
scalar MultiCell_Standalone.router.ppp[0].ppp txPk:count 0
scalar MultiCell_Standalone.router.ppp[0].ppp txPk:sum(packetBytes) 0
scalar MultiCell_Standalone.router.ppp[0].ppp rcvdPkFromHl:count 0
scalar MultiCell_Standalone.router.ppp[0].ppp rcvdPkFromHl:sum(packetBytes) 0
scalar MultiCell_Standalone.router.ppp[0].ppp passedUpPk:count 995
scalar MultiCell_Standalone.router.ppp[0].ppp passedUpPk:sum(packetBytes) 127360
scalar MultiCell_Standalone.router.ppp[0].ppp packetDropIncorrectlyReceived:count 0
scalar MultiCell_Standalone.router.ppp[0].ppp packetDropIncorrectlyReceived:sum(packetBytes) 0
scalar MultiCell_Standalone.router.ppp[0].ppp packetDropInterfaceDown:count 0
scalar MultiCell_Standalone.router.ppp[0].ppp packetDropInterfaceDown:sum(packetBytes) 0
scalar MultiCell_Standalone.router.ppp[0] packetDropInterfaceDown:count 0
scalar MultiCell_Standalone.router.ppp[0] packetDropInterfaceDown:sum(packetBytes) 0
scalar MultiCell_Standalone.router.ppp[0] packetDropNoCarrier:count 0
scalar MultiCell_Standalone.router.ppp[0] packetDropNoCarrier:sum(packetBytes) 0
scalar MultiCell_Standalone.router.ppp[1].queue queueLength:last 0
scalar MultiCell_Standalone.router.ppp[1].queue queueLength:max 0
scalar MultiCell_Standalone.router.ppp[1].queue queueLength:timeavg 0
scalar MultiCell_Standalone.router.ppp[1].queue queueBitLength:last 0
scalar MultiCell_Standalone.router.ppp[1].queue queueBitLength:max 0
scalar MultiCell_Standalone.router.ppp[1].queue queueBitLength:timeavg 0
scalar MultiCell_Standalone.router.ppp[1].queue outgoingPackets:count 995
scalar MultiCell_Standalone.router.ppp[1].queue outgoingPacketLengths:sum 1018880
scalar MultiCell_Standalone.router.ppp[1].queue incomingPackets:count 995
scalar MultiCell_Standalone.router.ppp[1].queue incomingPacketLengths:sum 1018880
scalar MultiCell_Standalone.router.ppp[1].queue droppedPacketsQueueOverflow:count 0
scalar MultiCell_Standalone.router.ppp[1].queue droppedPacketLengthsQueueOverflow:sum 0
scalar MultiCell_Standalone.router.ppp[1].ppp transmissionState:timeavg 5.3730000000001288e-06
scalar MultiCell_Standalone.router.ppp[1].ppp rxPkOk:count 0
scalar MultiCell_Standalone.router.ppp[1].ppp rxPkOk:sum(packetBytes) 0
scalar MultiCell_Standalone.router.ppp[1].ppp txPk:count 995
scalar MultiCell_Standalone.router.ppp[1].ppp txPk:sum(packetBytes) 134325
scalar MultiCell_Standalone.router.ppp[1].ppp rcvdPkFromHl:count 995
scalar MultiCell_Standalone.router.ppp[1].ppp rcvdPkFromHl:sum(packetBytes) 127360
scalar MultiCell_Standalone.router.ppp[1].ppp passedUpPk:count 0
scalar MultiCell_Standalone.router.ppp[1].ppp passedUpPk:sum(packetBytes) 0
scalar MultiCell_Standalone.router.ppp[1].ppp packetDropIncorrectlyReceived:count 0
scalar MultiCell_Standalone.router.ppp[1].ppp packetDropIncorrectlyReceived:sum(packetBytes) 0
scalar MultiCell_Standalone.router.ppp[1].ppp packetDropInterfaceDown:count 0
scalar MultiCell_Standalone.router.ppp[1].ppp packetDropInterfaceDown:sum(packetBytes) 0
scalar MultiCell_Standalone.router.ppp[1] packetDropInterfaceDown:count 0
scalar MultiCell_Standalone.router.ppp[1] packetDropInterfaceDown:sum(packetBytes) 0
scalar MultiCell_Standalone.router.ppp[1] packetDropNoCarrier:count 0
scalar MultiCell_Standalone.router.ppp[1] packetDropNoCarrier:sum(packetBytes) 0
scalar MultiCell_Standalone.router.ipv4.ip packetDropAddressResolutionFailed:count 0
scalar MultiCell_Standalone.router.ipv4.ip packetDropAddressResolutionFailed:sum(packetBytes) 0
scalar MultiCell_Standalone.router.ipv4.ip packetDropHopLimitReached:count 0
scalar MultiCell_Standalone.router.ipv4.ip packetDropHopLimitReached:sum(packetBytes) 0
scalar MultiCell_Standalone.router.ipv4.ip packetDropForwardingDisabled:count 0
scalar MultiCell_Standalone.router.ipv4.ip packetDropForwardingDisabled:sum(packetBytes) 0
scalar MultiCell_Standalone.router.ipv4.ip packetDropNoInterfaceFound:count 0
scalar MultiCell_Standalone.router.ipv4.ip packetDropNoInterfaceFound:sum(packetBytes) 0
scalar MultiCell_Standalone.router.ipv4.ip packetDropNoRouteFound:count 0
scalar MultiCell_Standalone.router.ipv4.ip packetDropNoRouteFound:sum(packetBytes) 0
scalar MultiCell_Standalone.router.ipv4.ip packetDropUndefined:count 0
scalar MultiCell_Standalone.router.ipv4.ip packetDropUndefined:sum(packetBytes) 0
scalar MultiCell_Standalone.router.ipv4.arp arpResolutionFailed:count 0
scalar MultiCell_Standalone.router.ipv4.arp arpResolutionCompleted:count 0
scalar MultiCell_Standalone.router.ipv4.arp arpResolutionInitiated:count 0
scalar MultiCell_Standalone.router.ipv4.arp arpReplySent:count 0
scalar MultiCell_Standalone.router.ipv4.arp arpReplySent:sum(packetBytes) 0
scalar MultiCell_Standalone.router.ipv4.arp arpRequestSent:count 0
scalar MultiCell_Standalone.router.ipv4.arp arpRequestSent:sum(packetBytes) 0
scalar MultiCell_Standalone.upf.lo[0].lo rcvdPkFromHl:count 0
scalar MultiCell_Standalone.upf.lo[0].lo rcvdPkFromHl:sum(packetBytes) 0
scalar MultiCell_Standalone.upf.lo[0].lo passedUpPk:count 0
scalar MultiCell_Standalone.upf.lo[0].lo passedUpPk:sum(packetBytes) 0
scalar MultiCell_Standalone.upf.lo[0] packetDropInterfaceDown:count 0
scalar MultiCell_Standalone.upf.lo[0] packetDropInterfaceDown:sum(packetBytes) 0
scalar MultiCell_Standalone.upf.lo[0] packetDropNoCarrier:count 0
scalar MultiCell_Standalone.upf.lo[0] packetDropNoCarrier:sum(packetBytes) 0
scalar MultiCell_Standalone.upf.ppp[0].queue queueLength:last 0
scalar MultiCell_Standalone.upf.ppp[0].queue queueLength:max 0
scalar MultiCell_Standalone.upf.ppp[0].queue queueLength:timeavg 0
scalar MultiCell_Standalone.upf.ppp[0].queue queueBitLength:last 0
scalar MultiCell_Standalone.upf.ppp[0].queue queueBitLength:max 0
scalar MultiCell_Standalone.upf.ppp[0].queue queueBitLength:timeavg 0
scalar MultiCell_Standalone.upf.ppp[0].queue outgoingPackets:count 995
scalar MultiCell_Standalone.upf.ppp[0].queue outgoingPacketLengths:sum 1305440
scalar MultiCell_Standalone.upf.ppp[0].queue incomingPackets:count 995
scalar MultiCell_Standalone.upf.ppp[0].queue incomingPacketLengths:sum 1305440
scalar MultiCell_Standalone.upf.ppp[0].queue droppedPacketsQueueOverflow:count 0
scalar MultiCell_Standalone.upf.ppp[0].queue droppedPacketLengthsQueueOverflow:sum 0
scalar MultiCell_Standalone.upf.ppp[0].ppp transmissionState:timeavg 6.8058000000000611e-06
scalar MultiCell_Standalone.upf.ppp[0].ppp rxPkOk:count 0
scalar MultiCell_Standalone.upf.ppp[0].ppp rxPkOk:sum(packetBytes) 0
scalar MultiCell_Standalone.upf.ppp[0].ppp txPk:count 995
scalar MultiCell_Standalone.upf.ppp[0].ppp txPk:sum(packetBytes) 170145
scalar MultiCell_Standalone.upf.ppp[0].ppp rcvdPkFromHl:count 995
scalar MultiCell_Standalone.upf.ppp[0].ppp rcvdPkFromHl:sum(packetBytes) 163180
scalar MultiCell_Standalone.upf.ppp[0].ppp passedUpPk:count 0
scalar MultiCell_Standalone.upf.ppp[0].ppp passedUpPk:sum(packetBytes) 0
scalar MultiCell_Standalone.upf.ppp[0].ppp packetDropIncorrectlyReceived:count 0
scalar MultiCell_Standalone.upf.ppp[0].ppp packetDropIncorrectlyReceived:sum(packetBytes) 0
scalar MultiCell_Standalone.upf.ppp[0].ppp packetDropInterfaceDown:count 0
scalar MultiCell_Standalone.upf.ppp[0].ppp packetDropInterfaceDown:sum(packetBytes) 0
scalar MultiCell_Standalone.upf.ppp[0] packetDropInterfaceDown:count 0
scalar MultiCell_Standalone.upf.ppp[0] packetDropInterfaceDown:sum(packetBytes) 0
scalar MultiCell_Standalone.upf.ppp[0] packetDropNoCarrier:count 0
scalar MultiCell_Standalone.upf.ppp[0] packetDropNoCarrier:sum(packetBytes) 0
scalar MultiCell_Standalone.upf.ipv4.ip packetDropAddressResolutionFailed:count 0
scalar MultiCell_Standalone.upf.ipv4.ip packetDropAddressResolutionFailed:sum(packetBytes) 0
scalar MultiCell_Standalone.upf.ipv4.ip packetDropHopLimitReached:count 0
scalar MultiCell_Standalone.upf.ipv4.ip packetDropHopLimitReached:sum(packetBytes) 0
scalar MultiCell_Standalone.upf.ipv4.ip packetDropForwardingDisabled:count 0
scalar MultiCell_Standalone.upf.ipv4.ip packetDropForwardingDisabled:sum(packetBytes) 0
scalar MultiCell_Standalone.upf.ipv4.ip packetDropNoInterfaceFound:count 0
scalar MultiCell_Standalone.upf.ipv4.ip packetDropNoInterfaceFound:sum(packetBytes) 0
scalar MultiCell_Standalone.upf.ipv4.ip packetDropNoRouteFound:count 0
scalar MultiCell_Standalone.upf.ipv4.ip packetDropNoRouteFound:sum(packetBytes) 0
scalar MultiCell_Standalone.upf.ipv4.ip packetDropUndefined:count 0
scalar MultiCell_Standalone.upf.ipv4.ip packetDropUndefined:sum(packetBytes) 0
scalar MultiCell_Standalone.upf.ipv4.arp arpResolutionFailed:count 0
scalar MultiCell_Standalone.upf.ipv4.arp arpResolutionCompleted:count 0
scalar MultiCell_Standalone.upf.ipv4.arp arpResolutionInitiated:count 0
scalar MultiCell_Standalone.upf.ipv4.arp arpReplySent:count 0
scalar MultiCell_Standalone.upf.ipv4.arp arpReplySent:sum(packetBytes) 0
scalar MultiCell_Standalone.upf.ipv4.arp arpRequestSent:count 0
scalar MultiCell_Standalone.upf.ipv4.arp arpRequestSent:sum(packetBytes) 0
scalar MultiCell_Standalone.upf.udp packetReceived:count 0
scalar MultiCell_Standalone.upf.udp packetReceived:sum(packetBytes) 0
scalar MultiCell_Standalone.upf.udp packetSent:count 995
scalar MultiCell_Standalone.upf.udp packetSent:sum(packetBytes) 143280
scalar MultiCell_Standalone.upf.udp passedUpPk:count 0
scalar MultiCell_Standalone.upf.udp droppedPkWrongPort:count 0
scalar MultiCell_Standalone.upf.udp droppedPkBadChecksum:count 0
scalar MultiCell_Standalone.upf.dnPpp.queue queueLength:last 0
scalar MultiCell_Standalone.upf.dnPpp.queue queueLength:max 0
scalar MultiCell_Standalone.upf.dnPpp.queue queueLength:timeavg 0
scalar MultiCell_Standalone.upf.dnPpp.queue queueBitLength:last 0
scalar MultiCell_Standalone.upf.dnPpp.queue queueBitLength:max 0
scalar MultiCell_Standalone.upf.dnPpp.queue queueBitLength:timeavg 0
scalar MultiCell_Standalone.upf.dnPpp.queue outgoingPackets:count 0
scalar MultiCell_Standalone.upf.dnPpp.queue outgoingPacketLengths:sum 0
scalar MultiCell_Standalone.upf.dnPpp.queue incomingPackets:count 0
scalar MultiCell_Standalone.upf.dnPpp.queue incomingPacketLengths:sum 0
scalar MultiCell_Standalone.upf.dnPpp.queue droppedPacketsQueueOverflow:count 0
scalar MultiCell_Standalone.upf.dnPpp.queue droppedPacketLengthsQueueOverflow:sum 0
scalar MultiCell_Standalone.upf.dnPpp.ppp transmissionState:timeavg 0
scalar MultiCell_Standalone.upf.dnPpp.ppp rxPkOk:count 995
scalar MultiCell_Standalone.upf.dnPpp.ppp rxPkOk:sum(packetBytes) 134325
scalar MultiCell_Standalone.upf.dnPpp.ppp txPk:count 0
scalar MultiCell_Standalone.upf.dnPpp.ppp txPk:sum(packetBytes) 0
scalar MultiCell_Standalone.upf.dnPpp.ppp rcvdPkFromHl:count 0
scalar MultiCell_Standalone.upf.dnPpp.ppp rcvdPkFromHl:sum(packetBytes) 0
scalar MultiCell_Standalone.upf.dnPpp.ppp passedUpPk:count 995
scalar MultiCell_Standalone.upf.dnPpp.ppp passedUpPk:sum(packetBytes) 127360
scalar MultiCell_Standalone.upf.dnPpp.ppp packetDropIncorrectlyReceived:count 0
scalar MultiCell_Standalone.upf.dnPpp.ppp packetDropIncorrectlyReceived:sum(packetBytes) 0
scalar MultiCell_Standalone.upf.dnPpp.ppp packetDropInterfaceDown:count 0
scalar MultiCell_Standalone.upf.dnPpp.ppp packetDropInterfaceDown:sum(packetBytes) 0
scalar MultiCell_Standalone.upf.dnPpp packetDropInterfaceDown:count 0
scalar MultiCell_Standalone.upf.dnPpp packetDropInterfaceDown:sum(packetBytes) 0
scalar MultiCell_Standalone.upf.dnPpp packetDropNoCarrier:count 0
scalar MultiCell_Standalone.upf.dnPpp packetDropNoCarrier:sum(packetBytes) 0
scalar MultiCell_Standalone.iUpf.lo[0].lo rcvdPkFromHl:count 0
scalar MultiCell_Standalone.iUpf.lo[0].lo rcvdPkFromHl:sum(packetBytes) 0
scalar MultiCell_Standalone.iUpf.lo[0].lo passedUpPk:count 0
scalar MultiCell_Standalone.iUpf.lo[0].lo passedUpPk:sum(packetBytes) 0
scalar MultiCell_Standalone.iUpf.lo[0] packetDropInterfaceDown:count 0
scalar MultiCell_Standalone.iUpf.lo[0] packetDropInterfaceDown:sum(packetBytes) 0
scalar MultiCell_Standalone.iUpf.lo[0] packetDropNoCarrier:count 0
scalar MultiCell_Standalone.iUpf.lo[0] packetDropNoCarrier:sum(packetBytes) 0
scalar MultiCell_Standalone.iUpf.ppp[0].queue queueLength:last 0
scalar MultiCell_Standalone.iUpf.ppp[0].queue queueLength:max 0
scalar MultiCell_Standalone.iUpf.ppp[0].queue queueLength:timeavg 0
scalar MultiCell_Standalone.iUpf.ppp[0].queue queueBitLength:last 0
scalar MultiCell_Standalone.iUpf.ppp[0].queue queueBitLength:max 0
scalar MultiCell_Standalone.iUpf.ppp[0].queue queueBitLength:timeavg 0
scalar MultiCell_Standalone.iUpf.ppp[0].queue outgoingPackets:count 0
scalar MultiCell_Standalone.iUpf.ppp[0].queue outgoingPacketLengths:sum 0
scalar MultiCell_Standalone.iUpf.ppp[0].queue incomingPackets:count 0
scalar MultiCell_Standalone.iUpf.ppp[0].queue incomingPacketLengths:sum 0
scalar MultiCell_Standalone.iUpf.ppp[0].queue droppedPacketsQueueOverflow:count 0
scalar MultiCell_Standalone.iUpf.ppp[0].queue droppedPacketLengthsQueueOverflow:sum 0
scalar MultiCell_Standalone.iUpf.ppp[0].ppp transmissionState:timeavg 0
scalar MultiCell_Standalone.iUpf.ppp[0].ppp rxPkOk:count 995
scalar MultiCell_Standalone.iUpf.ppp[0].ppp rxPkOk:sum(packetBytes) 170145
scalar MultiCell_Standalone.iUpf.ppp[0].ppp txPk:count 0
scalar MultiCell_Standalone.iUpf.ppp[0].ppp txPk:sum(packetBytes) 0
scalar MultiCell_Standalone.iUpf.ppp[0].ppp rcvdPkFromHl:count 0
scalar MultiCell_Standalone.iUpf.ppp[0].ppp rcvdPkFromHl:sum(packetBytes) 0
scalar MultiCell_Standalone.iUpf.ppp[0].ppp passedUpPk:count 995
scalar MultiCell_Standalone.iUpf.ppp[0].ppp passedUpPk:sum(packetBytes) 163180
scalar MultiCell_Standalone.iUpf.ppp[0].ppp packetDropIncorrectlyReceived:count 0
scalar MultiCell_Standalone.iUpf.ppp[0].ppp packetDropIncorrectlyReceived:sum(packetBytes) 0
scalar MultiCell_Standalone.iUpf.ppp[0].ppp packetDropInterfaceDown:count 0
scalar MultiCell_Standalone.iUpf.ppp[0].ppp packetDropInterfaceDown:sum(packetBytes) 0
scalar MultiCell_Standalone.iUpf.ppp[0] packetDropInterfaceDown:count 0
scalar MultiCell_Standalone.iUpf.ppp[0] packetDropInterfaceDown:sum(packetBytes) 0
scalar MultiCell_Standalone.iUpf.ppp[0] packetDropNoCarrier:count 0
scalar MultiCell_Standalone.iUpf.ppp[0] packetDropNoCarrier:sum(packetBytes) 0
scalar MultiCell_Standalone.iUpf.ppp[1].queue queueLength:last 0
scalar MultiCell_Standalone.iUpf.ppp[1].queue queueLength:max 0
scalar MultiCell_Standalone.iUpf.ppp[1].queue queueLength:timeavg 0
scalar MultiCell_Standalone.iUpf.ppp[1].queue queueBitLength:last 0
scalar MultiCell_Standalone.iUpf.ppp[1].queue queueBitLength:max 0
scalar MultiCell_Standalone.iUpf.ppp[1].queue queueBitLength:timeavg 0
scalar MultiCell_Standalone.iUpf.ppp[1].queue outgoingPackets:count 993
scalar MultiCell_Standalone.iUpf.ppp[1].queue outgoingPacketLengths:sum 1302816
scalar MultiCell_Standalone.iUpf.ppp[1].queue incomingPackets:count 993
scalar MultiCell_Standalone.iUpf.ppp[1].queue incomingPacketLengths:sum 1302816
scalar MultiCell_Standalone.iUpf.ppp[1].queue droppedPacketsQueueOverflow:count 0
scalar MultiCell_Standalone.iUpf.ppp[1].queue droppedPacketLengthsQueueOverflow:sum 0
scalar MultiCell_Standalone.iUpf.ppp[1].ppp transmissionState:timeavg 6.7921200000000613e-06
scalar MultiCell_Standalone.iUpf.ppp[1].ppp rxPkOk:count 0
scalar MultiCell_Standalone.iUpf.ppp[1].ppp rxPkOk:sum(packetBytes) 0
scalar MultiCell_Standalone.iUpf.ppp[1].ppp txPk:count 993
scalar MultiCell_Standalone.iUpf.ppp[1].ppp txPk:sum(packetBytes) 169803
scalar MultiCell_Standalone.iUpf.ppp[1].ppp rcvdPkFromHl:count 993
scalar MultiCell_Standalone.iUpf.ppp[1].ppp rcvdPkFromHl:sum(packetBytes) 162852
scalar MultiCell_Standalone.iUpf.ppp[1].ppp passedUpPk:count 0
scalar MultiCell_Standalone.iUpf.ppp[1].ppp passedUpPk:sum(packetBytes) 0
scalar MultiCell_Standalone.iUpf.ppp[1].ppp packetDropIncorrectlyReceived:count 0
scalar MultiCell_Standalone.iUpf.ppp[1].ppp packetDropIncorrectlyReceived:sum(packetBytes) 0
scalar MultiCell_Standalone.iUpf.ppp[1].ppp packetDropInterfaceDown:count 0
scalar MultiCell_Standalone.iUpf.ppp[1].ppp packetDropInterfaceDown:sum(packetBytes) 0
scalar MultiCell_Standalone.iUpf.ppp[1] packetDropInterfaceDown:count 0
scalar MultiCell_Standalone.iUpf.ppp[1] packetDropInterfaceDown:sum(packetBytes) 0
scalar MultiCell_Standalone.iUpf.ppp[1] packetDropNoCarrier:count 0
scalar MultiCell_Standalone.iUpf.ppp[1] packetDropNoCarrier:sum(packetBytes) 0
scalar MultiCell_Standalone.iUpf.ppp[2].queue queueLength:last 0
scalar MultiCell_Standalone.iUpf.ppp[2].queue queueLength:max 0
scalar MultiCell_Standalone.iUpf.ppp[2].queue queueLength:timeavg 0
scalar MultiCell_Standalone.iUpf.ppp[2].queue queueBitLength:last 0
scalar MultiCell_Standalone.iUpf.ppp[2].queue queueBitLength:max 0
scalar MultiCell_Standalone.iUpf.ppp[2].queue queueBitLength:timeavg 0
scalar MultiCell_Standalone.iUpf.ppp[2].queue outgoingPackets:count 2
scalar MultiCell_Standalone.iUpf.ppp[2].queue outgoingPacketLengths:sum 2624
scalar MultiCell_Standalone.iUpf.ppp[2].queue incomingPackets:count 2
scalar MultiCell_Standalone.iUpf.ppp[2].queue incomingPacketLengths:sum 2624
scalar MultiCell_Standalone.iUpf.ppp[2].queue droppedPacketsQueueOverflow:count 0
scalar MultiCell_Standalone.iUpf.ppp[2].queue droppedPacketLengthsQueueOverflow:sum 0
scalar MultiCell_Standalone.iUpf.ppp[2].ppp transmissionState:timeavg 1.3680000000000001e-08
scalar MultiCell_Standalone.iUpf.ppp[2].ppp rxPkOk:count 0
scalar MultiCell_Standalone.iUpf.ppp[2].ppp rxPkOk:sum(packetBytes) 0
scalar MultiCell_Standalone.iUpf.ppp[2].ppp txPk:count 2
scalar MultiCell_Standalone.iUpf.ppp[2].ppp txPk:sum(packetBytes) 342
scalar MultiCell_Standalone.iUpf.ppp[2].ppp rcvdPkFromHl:count 2
scalar MultiCell_Standalone.iUpf.ppp[2].ppp rcvdPkFromHl:sum(packetBytes) 328
scalar MultiCell_Standalone.iUpf.ppp[2].ppp passedUpPk:count 0
scalar MultiCell_Standalone.iUpf.ppp[2].ppp passedUpPk:sum(packetBytes) 0
scalar MultiCell_Standalone.iUpf.ppp[2].ppp packetDropIncorrectlyReceived:count 0
scalar MultiCell_Standalone.iUpf.ppp[2].ppp packetDropIncorrectlyReceived:sum(packetBytes) 0
scalar MultiCell_Standalone.iUpf.ppp[2].ppp packetDropInterfaceDown:count 0
scalar MultiCell_Standalone.iUpf.ppp[2].ppp packetDropInterfaceDown:sum(packetBytes) 0
scalar MultiCell_Standalone.iUpf.ppp[2] packetDropInterfaceDown:count 0
scalar MultiCell_Standalone.iUpf.ppp[2] packetDropInterfaceDown:sum(packetBytes) 0
scalar MultiCell_Standalone.iUpf.ppp[2] packetDropNoCarrier:count 0
scalar MultiCell_Standalone.iUpf.ppp[2] packetDropNoCarrier:sum(packetBytes) 0
scalar MultiCell_Standalone.iUpf.ipv4.ip packetDropAddressResolutionFailed:count 0
scalar MultiCell_Standalone.iUpf.ipv4.ip packetDropAddressResolutionFailed:sum(packetBytes) 0
scalar MultiCell_Standalone.iUpf.ipv4.ip packetDropHopLimitReached:count 0
scalar MultiCell_Standalone.iUpf.ipv4.ip packetDropHopLimitReached:sum(packetBytes) 0
scalar MultiCell_Standalone.iUpf.ipv4.ip packetDropForwardingDisabled:count 0
scalar MultiCell_Standalone.iUpf.ipv4.ip packetDropForwardingDisabled:sum(packetBytes) 0
scalar MultiCell_Standalone.iUpf.ipv4.ip packetDropNoInterfaceFound:count 0
scalar MultiCell_Standalone.iUpf.ipv4.ip packetDropNoInterfaceFound:sum(packetBytes) 0
scalar MultiCell_Standalone.iUpf.ipv4.ip packetDropNoRouteFound:count 0
scalar MultiCell_Standalone.iUpf.ipv4.ip packetDropNoRouteFound:sum(packetBytes) 0
scalar MultiCell_Standalone.iUpf.ipv4.ip packetDropUndefined:count 0
scalar MultiCell_Standalone.iUpf.ipv4.ip packetDropUndefined:sum(packetBytes) 0
scalar MultiCell_Standalone.iUpf.ipv4.arp arpResolutionFailed:count 0
scalar MultiCell_Standalone.iUpf.ipv4.arp arpResolutionCompleted:count 0
scalar MultiCell_Standalone.iUpf.ipv4.arp arpResolutionInitiated:count 0
scalar MultiCell_Standalone.iUpf.ipv4.arp arpReplySent:count 0
scalar MultiCell_Standalone.iUpf.ipv4.arp arpReplySent:sum(packetBytes) 0
scalar MultiCell_Standalone.iUpf.ipv4.arp arpRequestSent:count 0
scalar MultiCell_Standalone.iUpf.ipv4.arp arpRequestSent:sum(packetBytes) 0
scalar MultiCell_Standalone.iUpf.udp packetReceived:count 0
scalar MultiCell_Standalone.iUpf.udp packetReceived:sum(packetBytes) 0
scalar MultiCell_Standalone.iUpf.udp packetSent:count 0
scalar MultiCell_Standalone.iUpf.udp packetSent:sum(packetBytes) 0
scalar MultiCell_Standalone.iUpf.udp passedUpPk:count 0
scalar MultiCell_Standalone.iUpf.udp droppedPkWrongPort:count 0
scalar MultiCell_Standalone.iUpf.udp droppedPkBadChecksum:count 0
scalar MultiCell_Standalone.iUpf.dnPpp.queue queueLength:last 0
scalar MultiCell_Standalone.iUpf.dnPpp.queue queueLength:max 0
scalar MultiCell_Standalone.iUpf.dnPpp.queue queueLength:timeavg 0
scalar MultiCell_Standalone.iUpf.dnPpp.queue queueBitLength:last 0
scalar MultiCell_Standalone.iUpf.dnPpp.queue queueBitLength:max 0
scalar MultiCell_Standalone.iUpf.dnPpp.queue queueBitLength:timeavg 0
scalar MultiCell_Standalone.iUpf.dnPpp.queue outgoingPackets:count 0
scalar MultiCell_Standalone.iUpf.dnPpp.queue outgoingPacketLengths:sum 0
scalar MultiCell_Standalone.iUpf.dnPpp.queue incomingPackets:count 0
scalar MultiCell_Standalone.iUpf.dnPpp.queue incomingPacketLengths:sum 0
scalar MultiCell_Standalone.iUpf.dnPpp.queue droppedPacketsQueueOverflow:count 0
scalar MultiCell_Standalone.iUpf.dnPpp.queue droppedPacketLengthsQueueOverflow:sum 0
scalar MultiCell_Standalone.iUpf.dnPpp.ppp transmissionState:timeavg 0
scalar MultiCell_Standalone.iUpf.dnPpp.ppp rxPkOk:count 0
scalar MultiCell_Standalone.iUpf.dnPpp.ppp rxPkOk:sum(packetBytes) 0
scalar MultiCell_Standalone.iUpf.dnPpp.ppp txPk:count 0
scalar MultiCell_Standalone.iUpf.dnPpp.ppp txPk:sum(packetBytes) 0
scalar MultiCell_Standalone.iUpf.dnPpp.ppp rcvdPkFromHl:count 0
scalar MultiCell_Standalone.iUpf.dnPpp.ppp rcvdPkFromHl:sum(packetBytes) 0
scalar MultiCell_Standalone.iUpf.dnPpp.ppp passedUpPk:count 0
scalar MultiCell_Standalone.iUpf.dnPpp.ppp passedUpPk:sum(packetBytes) 0
scalar MultiCell_Standalone.iUpf.dnPpp.ppp packetDropIncorrectlyReceived:count 0
scalar MultiCell_Standalone.iUpf.dnPpp.ppp packetDropIncorrectlyReceived:sum(packetBytes) 0
scalar MultiCell_Standalone.iUpf.dnPpp.ppp packetDropInterfaceDown:count 0
scalar MultiCell_Standalone.iUpf.dnPpp.ppp packetDropInterfaceDown:sum(packetBytes) 0
scalar MultiCell_Standalone.iUpf.dnPpp packetDropInterfaceDown:count 0
scalar MultiCell_Standalone.iUpf.dnPpp packetDropInterfaceDown:sum(packetBytes) 0
scalar MultiCell_Standalone.iUpf.dnPpp packetDropNoCarrier:count 0
scalar MultiCell_Standalone.iUpf.dnPpp packetDropNoCarrier:sum(packetBytes) 0
scalar MultiCell_Standalone.gnb1.cellularNic.rlcMux rlcCellThroughputD2D:simu5g_rateavg -nan
scalar MultiCell_Standalone.gnb1.cellularNic.rlcMux rlcPduThroughputD2D:simu5g_rateavg -nan
scalar MultiCell_Standalone.gnb1.cellularNic.rlcMux rlcPduDelayD2D:mean -nan
scalar MultiCell_Standalone.gnb1.cellularNic.rlcMux rlcThroughputD2D:simu5g_rateavg -nan
scalar MultiCell_Standalone.gnb1.cellularNic.rlcMux rlcDelayD2D:mean -nan
scalar MultiCell_Standalone.gnb1.cellularNic.rlcMux rlcCellThroughputUl:simu5g_rateavg -nan
scalar MultiCell_Standalone.gnb1.cellularNic.rlcMux rlcCellThroughputDl:simu5g_rateavg 6426.5286099981849
scalar MultiCell_Standalone.gnb1.cellularNic.rlcMux rlcPduThroughputUl:simu5g_rateavg -nan
scalar MultiCell_Standalone.gnb1.cellularNic.rlcMux rlcPduThroughputDl:simu5g_rateavg -nan
scalar MultiCell_Standalone.gnb1.cellularNic.rlcMux rlcPduDelayUl:mean -nan
scalar MultiCell_Standalone.gnb1.cellularNic.rlcMux rlcPduDelayDl:mean -nan
scalar MultiCell_Standalone.gnb1.cellularNic.rlcMux rlcThroughputUl:simu5g_rateavg -nan
scalar MultiCell_Standalone.gnb1.cellularNic.rlcMux rlcThroughputDl:simu5g_rateavg -nan
scalar MultiCell_Standalone.gnb1.cellularNic.rlcMux rlcDelayUl:mean -nan
scalar MultiCell_Standalone.gnb1.cellularNic.rlcMux rlcDelayDl:mean -nan
scalar MultiCell_Standalone.gnb1.cellularNic.rlcMux sentPacketToLowerLayer:count 1987
scalar MultiCell_Standalone.gnb1.cellularNic.rlcMux sentPacketToLowerLayer:sum(packetBytes) 258694
scalar MultiCell_Standalone.gnb1.cellularNic.rlcMux receivedPacketFromLowerLayer:count 0
scalar MultiCell_Standalone.gnb1.cellularNic.rlcMux receivedPacketFromLowerLayer:sum(packetBytes) 0
scalar MultiCell_Standalone.gnb1.cellularNic.mac avgServedBlocksUl:mean 0
scalar MultiCell_Standalone.gnb1.cellularNic.mac avgServedBlocksDl:mean 0.049950000000000001
scalar MultiCell_Standalone.gnb1.cellularNic.mac macCellPacketLossD2D:mean -nan
scalar MultiCell_Standalone.gnb1.cellularNic.mac macCellThroughputD2D:simu5g_rateavg -nan
scalar MultiCell_Standalone.gnb1.cellularNic.mac harqTxAttemptsUl:mean -nan
scalar MultiCell_Standalone.gnb1.cellularNic.mac harqTxAttemptsDl:mean -nan
scalar MultiCell_Standalone.gnb1.cellularNic.mac harqErrorRate_4th_Ul:mean -nan
scalar MultiCell_Standalone.gnb1.cellularNic.mac harqErrorRate_4th_Dl:mean -nan
scalar MultiCell_Standalone.gnb1.cellularNic.mac harqErrorRate_3rd_Ul:mean -nan
scalar MultiCell_Standalone.gnb1.cellularNic.mac harqErrorRate_3rd_Dl:mean -nan
scalar MultiCell_Standalone.gnb1.cellularNic.mac harqErrorRate_2nd_Ul:mean -nan
scalar MultiCell_Standalone.gnb1.cellularNic.mac harqErrorRate_2nd_Dl:mean -nan
scalar MultiCell_Standalone.gnb1.cellularNic.mac harqErrorRate_1st_Ul:mean -nan
scalar MultiCell_Standalone.gnb1.cellularNic.mac harqErrorRate_1st_Dl:mean -nan
scalar MultiCell_Standalone.gnb1.cellularNic.mac harqErrorRateUl:mean -nan
scalar MultiCell_Standalone.gnb1.cellularNic.mac harqErrorRateDl:mean -nan
scalar MultiCell_Standalone.gnb1.cellularNic.mac macCellPacketLossUl:mean -nan
scalar MultiCell_Standalone.gnb1.cellularNic.mac macCellPacketLossDl:mean 0
scalar MultiCell_Standalone.gnb1.cellularNic.mac macPacketLossUl:mean -nan
scalar MultiCell_Standalone.gnb1.cellularNic.mac macPacketLossDl:mean -nan
scalar MultiCell_Standalone.gnb1.cellularNic.mac macThroughputUl:simu5g_rateavg -nan
scalar MultiCell_Standalone.gnb1.cellularNic.mac macThroughputDl:simu5g_rateavg -nan
scalar MultiCell_Standalone.gnb1.cellularNic.mac macDelayUl:mean -nan
scalar MultiCell_Standalone.gnb1.cellularNic.mac macDelayDl:mean -nan
scalar MultiCell_Standalone.gnb1.cellularNic.mac macCellThroughputUl:simu5g_rateavg -nan
scalar MultiCell_Standalone.gnb1.cellularNic.mac macCellThroughputDl:simu5g_rateavg 6642.0351174878306
scalar MultiCell_Standalone.gnb1.cellularNic.mac sentPacketToLowerLayer:count 996
scalar MultiCell_Standalone.gnb1.cellularNic.mac sentPacketToLowerLayer:sum(packetBytes) 132855
scalar MultiCell_Standalone.gnb1.cellularNic.mac sentPacketToUpperLayer:count 992
scalar MultiCell_Standalone.gnb1.cellularNic.mac sentPacketToUpperLayer:sum(packetBytes) 992
scalar MultiCell_Standalone.gnb1.cellularNic.mac receivedPacketFromLowerLayer:count 1494
scalar MultiCell_Standalone.gnb1.cellularNic.mac receivedPacketFromLowerLayer:sum(packetBytes) 1494
scalar MultiCell_Standalone.gnb1.cellularNic.mac receivedPacketFromUpperLayer:count 1987
scalar MultiCell_Standalone.gnb1.cellularNic.mac receivedPacketFromUpperLayer:sum(packetBytes) 258694
scalar MultiCell_Standalone.gnb1.cellularNic.mac macBufferOverFlowD2D:mean -nan
scalar MultiCell_Standalone.gnb1.cellularNic.mac macBufferOverFlowUl:mean -nan
scalar MultiCell_Standalone.gnb1.cellularNic.mac macBufferOverFlowDl:mean -nan
scalar MultiCell_Standalone.gnb1.cellularNic.channelModel[0] measuredSinrUl:mean -nan
scalar MultiCell_Standalone.gnb1.cellularNic.channelModel[0] measuredSinrDl:mean -nan
scalar MultiCell_Standalone.gnb1.cellularNic.channelModel[0] rcvdSinrD2D:mean -nan
scalar MultiCell_Standalone.gnb1.cellularNic.channelModel[0] rcvdSinrUl:mean -nan
scalar MultiCell_Standalone.gnb1.cellularNic.channelModel[0] rcvdSinrDl:mean -nan
scalar MultiCell_Standalone.gnb1.cellularNic packetDropInterfaceDown:count 0
scalar MultiCell_Standalone.gnb1.cellularNic packetDropInterfaceDown:sum(packetBytes) 0
scalar MultiCell_Standalone.gnb1.cellularNic packetDropNoCarrier:count 0
scalar MultiCell_Standalone.gnb1.cellularNic packetDropNoCarrier:sum(packetBytes) 0
scalar MultiCell_Standalone.gnb1.pppIf.queue queueLength:last 0
scalar MultiCell_Standalone.gnb1.pppIf.queue queueLength:max 0
scalar MultiCell_Standalone.gnb1.pppIf.queue queueLength:timeavg 0
scalar MultiCell_Standalone.gnb1.pppIf.queue queueBitLength:last 0
scalar MultiCell_Standalone.gnb1.pppIf.queue queueBitLength:max 0
scalar MultiCell_Standalone.gnb1.pppIf.queue queueBitLength:timeavg 0
scalar MultiCell_Standalone.gnb1.pppIf.queue outgoingPackets:count 0
scalar MultiCell_Standalone.gnb1.pppIf.queue outgoingPacketLengths:sum 0
scalar MultiCell_Standalone.gnb1.pppIf.queue incomingPackets:count 0
scalar MultiCell_Standalone.gnb1.pppIf.queue incomingPacketLengths:sum 0
scalar MultiCell_Standalone.gnb1.pppIf.queue droppedPacketsQueueOverflow:count 0
scalar MultiCell_Standalone.gnb1.pppIf.queue droppedPacketLengthsQueueOverflow:sum 0
scalar MultiCell_Standalone.gnb1.pppIf.ppp transmissionState:timeavg 0
scalar MultiCell_Standalone.gnb1.pppIf.ppp rxPkOk:count 993
scalar MultiCell_Standalone.gnb1.pppIf.ppp rxPkOk:sum(packetBytes) 169803
scalar MultiCell_Standalone.gnb1.pppIf.ppp txPk:count 0
scalar MultiCell_Standalone.gnb1.pppIf.ppp txPk:sum(packetBytes) 0
scalar MultiCell_Standalone.gnb1.pppIf.ppp rcvdPkFromHl:count 0
scalar MultiCell_Standalone.gnb1.pppIf.ppp rcvdPkFromHl:sum(packetBytes) 0
scalar MultiCell_Standalone.gnb1.pppIf.ppp passedUpPk:count 993
scalar MultiCell_Standalone.gnb1.pppIf.ppp passedUpPk:sum(packetBytes) 162852
scalar MultiCell_Standalone.gnb1.pppIf.ppp packetDropIncorrectlyReceived:count 0
scalar MultiCell_Standalone.gnb1.pppIf.ppp packetDropIncorrectlyReceived:sum(packetBytes) 0
scalar MultiCell_Standalone.gnb1.pppIf.ppp packetDropInterfaceDown:count 0
scalar MultiCell_Standalone.gnb1.pppIf.ppp packetDropInterfaceDown:sum(packetBytes) 0
scalar MultiCell_Standalone.gnb1.pppIf packetDropInterfaceDown:count 0
scalar MultiCell_Standalone.gnb1.pppIf packetDropInterfaceDown:sum(packetBytes) 0
scalar MultiCell_Standalone.gnb1.pppIf packetDropNoCarrier:count 0
scalar MultiCell_Standalone.gnb1.pppIf packetDropNoCarrier:sum(packetBytes) 0
scalar MultiCell_Standalone.gnb1.x2ppp[0].queue queueLength:last 0
scalar MultiCell_Standalone.gnb1.x2ppp[0].queue queueLength:max 0
scalar MultiCell_Standalone.gnb1.x2ppp[0].queue queueLength:timeavg 0
scalar MultiCell_Standalone.gnb1.x2ppp[0].queue queueBitLength:last 0
scalar MultiCell_Standalone.gnb1.x2ppp[0].queue queueBitLength:max 0
scalar MultiCell_Standalone.gnb1.x2ppp[0].queue queueBitLength:timeavg 0
scalar MultiCell_Standalone.gnb1.x2ppp[0].queue outgoingPackets:count 6
scalar MultiCell_Standalone.gnb1.x2ppp[0].queue outgoingPacketLengths:sum 4224
scalar MultiCell_Standalone.gnb1.x2ppp[0].queue incomingPackets:count 6
scalar MultiCell_Standalone.gnb1.x2ppp[0].queue incomingPacketLengths:sum 4224
scalar MultiCell_Standalone.gnb1.x2ppp[0].queue droppedPacketsQueueOverflow:count 0
scalar MultiCell_Standalone.gnb1.x2ppp[0].queue droppedPacketLengthsQueueOverflow:sum 0
scalar MultiCell_Standalone.gnb1.x2ppp[0].ppp transmissionState:timeavg 2.2799999999999996e-08
scalar MultiCell_Standalone.gnb1.x2ppp[0].ppp rxPkOk:count 8
scalar MultiCell_Standalone.gnb1.x2ppp[0].ppp rxPkOk:sum(packetBytes) 934
scalar MultiCell_Standalone.gnb1.x2ppp[0].ppp txPk:count 6
scalar MultiCell_Standalone.gnb1.x2ppp[0].ppp txPk:sum(packetBytes) 570
scalar MultiCell_Standalone.gnb1.x2ppp[0].ppp rcvdPkFromHl:count 6
scalar MultiCell_Standalone.gnb1.x2ppp[0].ppp rcvdPkFromHl:sum(packetBytes) 528
scalar MultiCell_Standalone.gnb1.x2ppp[0].ppp passedUpPk:count 8
scalar MultiCell_Standalone.gnb1.x2ppp[0].ppp passedUpPk:sum(packetBytes) 878
scalar MultiCell_Standalone.gnb1.x2ppp[0].ppp packetDropIncorrectlyReceived:count 0
scalar MultiCell_Standalone.gnb1.x2ppp[0].ppp packetDropIncorrectlyReceived:sum(packetBytes) 0
scalar MultiCell_Standalone.gnb1.x2ppp[0].ppp packetDropInterfaceDown:count 0
scalar MultiCell_Standalone.gnb1.x2ppp[0].ppp packetDropInterfaceDown:sum(packetBytes) 0
scalar MultiCell_Standalone.gnb1.x2ppp[0] packetDropInterfaceDown:count 0
scalar MultiCell_Standalone.gnb1.x2ppp[0] packetDropInterfaceDown:sum(packetBytes) 0
scalar MultiCell_Standalone.gnb1.x2ppp[0] packetDropNoCarrier:count 0
scalar MultiCell_Standalone.gnb1.x2ppp[0] packetDropNoCarrier:sum(packetBytes) 0
scalar MultiCell_Standalone.gnb1.pppMEHostIf.queue queueLength:last 0
scalar MultiCell_Standalone.gnb1.pppMEHostIf.queue queueLength:max 0
scalar MultiCell_Standalone.gnb1.pppMEHostIf.queue queueLength:timeavg 0
scalar MultiCell_Standalone.gnb1.pppMEHostIf.queue queueBitLength:last 0
scalar MultiCell_Standalone.gnb1.pppMEHostIf.queue queueBitLength:max 0
scalar MultiCell_Standalone.gnb1.pppMEHostIf.queue queueBitLength:timeavg 0
scalar MultiCell_Standalone.gnb1.pppMEHostIf.queue outgoingPackets:count 0
scalar MultiCell_Standalone.gnb1.pppMEHostIf.queue outgoingPacketLengths:sum 0
scalar MultiCell_Standalone.gnb1.pppMEHostIf.queue incomingPackets:count 0
scalar MultiCell_Standalone.gnb1.pppMEHostIf.queue incomingPacketLengths:sum 0
scalar MultiCell_Standalone.gnb1.pppMEHostIf.queue droppedPacketsQueueOverflow:count 0
scalar MultiCell_Standalone.gnb1.pppMEHostIf.queue droppedPacketLengthsQueueOverflow:sum 0
scalar MultiCell_Standalone.gnb1.pppMEHostIf.ppp transmissionState:timeavg 0
scalar MultiCell_Standalone.gnb1.pppMEHostIf.ppp rxPkOk:count 0
scalar MultiCell_Standalone.gnb1.pppMEHostIf.ppp rxPkOk:sum(packetBytes) 0
scalar MultiCell_Standalone.gnb1.pppMEHostIf.ppp txPk:count 0
scalar MultiCell_Standalone.gnb1.pppMEHostIf.ppp txPk:sum(packetBytes) 0
scalar MultiCell_Standalone.gnb1.pppMEHostIf.ppp rcvdPkFromHl:count 0
scalar MultiCell_Standalone.gnb1.pppMEHostIf.ppp rcvdPkFromHl:sum(packetBytes) 0
scalar MultiCell_Standalone.gnb1.pppMEHostIf.ppp passedUpPk:count 0
scalar MultiCell_Standalone.gnb1.pppMEHostIf.ppp passedUpPk:sum(packetBytes) 0
scalar MultiCell_Standalone.gnb1.pppMEHostIf.ppp packetDropIncorrectlyReceived:count 0
scalar MultiCell_Standalone.gnb1.pppMEHostIf.ppp packetDropIncorrectlyReceived:sum(packetBytes) 0
scalar MultiCell_Standalone.gnb1.pppMEHostIf.ppp packetDropInterfaceDown:count 0
scalar MultiCell_Standalone.gnb1.pppMEHostIf.ppp packetDropInterfaceDown:sum(packetBytes) 0
scalar MultiCell_Standalone.gnb1.pppMEHostIf packetDropInterfaceDown:count 0
scalar MultiCell_Standalone.gnb1.pppMEHostIf packetDropInterfaceDown:sum(packetBytes) 0
scalar MultiCell_Standalone.gnb1.pppMEHostIf packetDropNoCarrier:count 0
scalar MultiCell_Standalone.gnb1.pppMEHostIf packetDropNoCarrier:sum(packetBytes) 0
scalar MultiCell_Standalone.gnb1.ipv4.ip packetDropAddressResolutionFailed:count 0
scalar MultiCell_Standalone.gnb1.ipv4.ip packetDropAddressResolutionFailed:sum(packetBytes) 0
scalar MultiCell_Standalone.gnb1.ipv4.ip packetDropHopLimitReached:count 0
scalar MultiCell_Standalone.gnb1.ipv4.ip packetDropHopLimitReached:sum(packetBytes) 0
scalar MultiCell_Standalone.gnb1.ipv4.ip packetDropForwardingDisabled:count 0
scalar MultiCell_Standalone.gnb1.ipv4.ip packetDropForwardingDisabled:sum(packetBytes) 0
scalar MultiCell_Standalone.gnb1.ipv4.ip packetDropNoInterfaceFound:count 0
scalar MultiCell_Standalone.gnb1.ipv4.ip packetDropNoInterfaceFound:sum(packetBytes) 0
scalar MultiCell_Standalone.gnb1.ipv4.ip packetDropNoRouteFound:count 0
scalar MultiCell_Standalone.gnb1.ipv4.ip packetDropNoRouteFound:sum(packetBytes) 0
scalar MultiCell_Standalone.gnb1.ipv4.ip packetDropUndefined:count 0
scalar MultiCell_Standalone.gnb1.ipv4.ip packetDropUndefined:sum(packetBytes) 0
scalar MultiCell_Standalone.gnb1.ipv4.arp arpResolutionFailed:count 0
scalar MultiCell_Standalone.gnb1.ipv4.arp arpResolutionCompleted:count 0
scalar MultiCell_Standalone.gnb1.ipv4.arp arpResolutionInitiated:count 0
scalar MultiCell_Standalone.gnb1.ipv4.arp arpReplySent:count 0
scalar MultiCell_Standalone.gnb1.ipv4.arp arpReplySent:sum(packetBytes) 0
scalar MultiCell_Standalone.gnb1.ipv4.arp arpRequestSent:count 0
scalar MultiCell_Standalone.gnb1.ipv4.arp arpRequestSent:sum(packetBytes) 0
scalar MultiCell_Standalone.gnb1.udp packetReceived:count 995
scalar MultiCell_Standalone.gnb1.udp packetReceived:sum(packetBytes) 143302
scalar MultiCell_Standalone.gnb1.udp packetSent:count 0
scalar MultiCell_Standalone.gnb1.udp packetSent:sum(packetBytes) 0
scalar MultiCell_Standalone.gnb1.udp passedUpPk:count 995
scalar MultiCell_Standalone.gnb1.udp droppedPkWrongPort:count 0
scalar MultiCell_Standalone.gnb1.udp droppedPkBadChecksum:count 0
scalar MultiCell_Standalone.gnb1.x2App[0].client packetReceived:count 1
scalar MultiCell_Standalone.gnb1.x2App[0].client packetReceived:sum(packetBytes) 15
scalar MultiCell_Standalone.gnb1.x2App[0].client packetSent:count 0
scalar MultiCell_Standalone.gnb1.x2App[0].client packetSent:sum(packetBytes) 0
scalar MultiCell_Standalone.gnb1.x2App[0].client echoedPk:count 0
scalar MultiCell_Standalone.gnb1.x2App[0].client echoedPk:sum(packetBytes) 0
scalar MultiCell_Standalone.gnb1.x2App[0].server "bytes rcvd" 0
scalar MultiCell_Standalone.gnb1.x2App[0].server throughput -nan
scalar MultiCell_Standalone.gnb2.cellularNic.rlcMux rlcCellThroughputD2D:simu5g_rateavg -nan
scalar MultiCell_Standalone.gnb2.cellularNic.rlcMux rlcPduThroughputD2D:simu5g_rateavg -nan
scalar MultiCell_Standalone.gnb2.cellularNic.rlcMux rlcPduDelayD2D:mean -nan
scalar MultiCell_Standalone.gnb2.cellularNic.rlcMux rlcThroughputD2D:simu5g_rateavg -nan
scalar MultiCell_Standalone.gnb2.cellularNic.rlcMux rlcDelayD2D:mean -nan
scalar MultiCell_Standalone.gnb2.cellularNic.rlcMux rlcCellThroughputUl:simu5g_rateavg -nan
scalar MultiCell_Standalone.gnb2.cellularNic.rlcMux rlcCellThroughputDl:simu5g_rateavg -nan
scalar MultiCell_Standalone.gnb2.cellularNic.rlcMux rlcPduThroughputUl:simu5g_rateavg -nan
scalar MultiCell_Standalone.gnb2.cellularNic.rlcMux rlcPduThroughputDl:simu5g_rateavg -nan
scalar MultiCell_Standalone.gnb2.cellularNic.rlcMux rlcPduDelayUl:mean -nan
scalar MultiCell_Standalone.gnb2.cellularNic.rlcMux rlcPduDelayDl:mean -nan
scalar MultiCell_Standalone.gnb2.cellularNic.rlcMux rlcThroughputUl:simu5g_rateavg -nan
scalar MultiCell_Standalone.gnb2.cellularNic.rlcMux rlcThroughputDl:simu5g_rateavg -nan
scalar MultiCell_Standalone.gnb2.cellularNic.rlcMux rlcDelayUl:mean -nan
scalar MultiCell_Standalone.gnb2.cellularNic.rlcMux rlcDelayDl:mean -nan
scalar MultiCell_Standalone.gnb2.cellularNic.rlcMux sentPacketToLowerLayer:count 0
scalar MultiCell_Standalone.gnb2.cellularNic.rlcMux sentPacketToLowerLayer:sum(packetBytes) 0
scalar MultiCell_Standalone.gnb2.cellularNic.rlcMux receivedPacketFromLowerLayer:count 0
scalar MultiCell_Standalone.gnb2.cellularNic.rlcMux receivedPacketFromLowerLayer:sum(packetBytes) 0
scalar MultiCell_Standalone.gnb2.cellularNic.mac avgServedBlocksUl:mean 0
scalar MultiCell_Standalone.gnb2.cellularNic.mac avgServedBlocksDl:mean 0
scalar MultiCell_Standalone.gnb2.cellularNic.mac macCellPacketLossD2D:mean -nan
scalar MultiCell_Standalone.gnb2.cellularNic.mac macCellThroughputD2D:simu5g_rateavg -nan
scalar MultiCell_Standalone.gnb2.cellularNic.mac harqTxAttemptsUl:mean -nan
scalar MultiCell_Standalone.gnb2.cellularNic.mac harqTxAttemptsDl:mean -nan
scalar MultiCell_Standalone.gnb2.cellularNic.mac harqErrorRate_4th_Ul:mean -nan
scalar MultiCell_Standalone.gnb2.cellularNic.mac harqErrorRate_4th_Dl:mean -nan
scalar MultiCell_Standalone.gnb2.cellularNic.mac harqErrorRate_3rd_Ul:mean -nan
scalar MultiCell_Standalone.gnb2.cellularNic.mac harqErrorRate_3rd_Dl:mean -nan
scalar MultiCell_Standalone.gnb2.cellularNic.mac harqErrorRate_2nd_Ul:mean -nan
scalar MultiCell_Standalone.gnb2.cellularNic.mac harqErrorRate_2nd_Dl:mean -nan
scalar MultiCell_Standalone.gnb2.cellularNic.mac harqErrorRate_1st_Ul:mean -nan
scalar MultiCell_Standalone.gnb2.cellularNic.mac harqErrorRate_1st_Dl:mean -nan
scalar MultiCell_Standalone.gnb2.cellularNic.mac harqErrorRateUl:mean -nan
scalar MultiCell_Standalone.gnb2.cellularNic.mac harqErrorRateDl:mean -nan
scalar MultiCell_Standalone.gnb2.cellularNic.mac macCellPacketLossUl:mean -nan
scalar MultiCell_Standalone.gnb2.cellularNic.mac macCellPacketLossDl:mean -nan
scalar MultiCell_Standalone.gnb2.cellularNic.mac macPacketLossUl:mean -nan
scalar MultiCell_Standalone.gnb2.cellularNic.mac macPacketLossDl:mean -nan
scalar MultiCell_Standalone.gnb2.cellularNic.mac macThroughputUl:simu5g_rateavg -nan
scalar MultiCell_Standalone.gnb2.cellularNic.mac macThroughputDl:simu5g_rateavg -nan
scalar MultiCell_Standalone.gnb2.cellularNic.mac macDelayUl:mean -nan
scalar MultiCell_Standalone.gnb2.cellularNic.mac macDelayDl:mean -nan
scalar MultiCell_Standalone.gnb2.cellularNic.mac macCellThroughputUl:simu5g_rateavg -nan
scalar MultiCell_Standalone.gnb2.cellularNic.mac macCellThroughputDl:simu5g_rateavg -nan
scalar MultiCell_Standalone.gnb2.cellularNic.mac sentPacketToLowerLayer:count 0
scalar MultiCell_Standalone.gnb2.cellularNic.mac sentPacketToLowerLayer:sum(packetBytes) 0
scalar MultiCell_Standalone.gnb2.cellularNic.mac sentPacketToUpperLayer:count 0
scalar MultiCell_Standalone.gnb2.cellularNic.mac sentPacketToUpperLayer:sum(packetBytes) 0
scalar MultiCell_Standalone.gnb2.cellularNic.mac receivedPacketFromLowerLayer:count 2
scalar MultiCell_Standalone.gnb2.cellularNic.mac receivedPacketFromLowerLayer:sum(packetBytes) 2
scalar MultiCell_Standalone.gnb2.cellularNic.mac receivedPacketFromUpperLayer:count 0
scalar MultiCell_Standalone.gnb2.cellularNic.mac receivedPacketFromUpperLayer:sum(packetBytes) 0
scalar MultiCell_Standalone.gnb2.cellularNic.mac macBufferOverFlowD2D:mean -nan
scalar MultiCell_Standalone.gnb2.cellularNic.mac macBufferOverFlowUl:mean -nan
scalar MultiCell_Standalone.gnb2.cellularNic.mac macBufferOverFlowDl:mean -nan
scalar MultiCell_Standalone.gnb2.cellularNic.channelModel[0] measuredSinrUl:mean -nan
scalar MultiCell_Standalone.gnb2.cellularNic.channelModel[0] measuredSinrDl:mean -nan
scalar MultiCell_Standalone.gnb2.cellularNic.channelModel[0] rcvdSinrD2D:mean -nan
scalar MultiCell_Standalone.gnb2.cellularNic.channelModel[0] rcvdSinrUl:mean -nan
scalar MultiCell_Standalone.gnb2.cellularNic.channelModel[0] rcvdSinrDl:mean -nan
scalar MultiCell_Standalone.gnb2.cellularNic packetDropInterfaceDown:count 0
scalar MultiCell_Standalone.gnb2.cellularNic packetDropInterfaceDown:sum(packetBytes) 0
scalar MultiCell_Standalone.gnb2.cellularNic packetDropNoCarrier:count 0
scalar MultiCell_Standalone.gnb2.cellularNic packetDropNoCarrier:sum(packetBytes) 0
scalar MultiCell_Standalone.gnb2.pppIf.queue queueLength:last 0
scalar MultiCell_Standalone.gnb2.pppIf.queue queueLength:max 0
scalar MultiCell_Standalone.gnb2.pppIf.queue queueLength:timeavg 0
scalar MultiCell_Standalone.gnb2.pppIf.queue queueBitLength:last 0
scalar MultiCell_Standalone.gnb2.pppIf.queue queueBitLength:max 0
scalar MultiCell_Standalone.gnb2.pppIf.queue queueBitLength:timeavg 0
scalar MultiCell_Standalone.gnb2.pppIf.queue outgoingPackets:count 0
scalar MultiCell_Standalone.gnb2.pppIf.queue outgoingPacketLengths:sum 0
scalar MultiCell_Standalone.gnb2.pppIf.queue incomingPackets:count 0
scalar MultiCell_Standalone.gnb2.pppIf.queue incomingPacketLengths:sum 0
scalar MultiCell_Standalone.gnb2.pppIf.queue droppedPacketsQueueOverflow:count 0
scalar MultiCell_Standalone.gnb2.pppIf.queue droppedPacketLengthsQueueOverflow:sum 0
scalar MultiCell_Standalone.gnb2.pppIf.ppp transmissionState:timeavg 0
scalar MultiCell_Standalone.gnb2.pppIf.ppp rxPkOk:count 2
scalar MultiCell_Standalone.gnb2.pppIf.ppp rxPkOk:sum(packetBytes) 342
scalar MultiCell_Standalone.gnb2.pppIf.ppp txPk:count 0
scalar MultiCell_Standalone.gnb2.pppIf.ppp txPk:sum(packetBytes) 0
scalar MultiCell_Standalone.gnb2.pppIf.ppp rcvdPkFromHl:count 0
scalar MultiCell_Standalone.gnb2.pppIf.ppp rcvdPkFromHl:sum(packetBytes) 0
scalar MultiCell_Standalone.gnb2.pppIf.ppp passedUpPk:count 2
scalar MultiCell_Standalone.gnb2.pppIf.ppp passedUpPk:sum(packetBytes) 328
scalar MultiCell_Standalone.gnb2.pppIf.ppp packetDropIncorrectlyReceived:count 0
scalar MultiCell_Standalone.gnb2.pppIf.ppp packetDropIncorrectlyReceived:sum(packetBytes) 0
scalar MultiCell_Standalone.gnb2.pppIf.ppp packetDropInterfaceDown:count 0
scalar MultiCell_Standalone.gnb2.pppIf.ppp packetDropInterfaceDown:sum(packetBytes) 0
scalar MultiCell_Standalone.gnb2.pppIf packetDropInterfaceDown:count 0
scalar MultiCell_Standalone.gnb2.pppIf packetDropInterfaceDown:sum(packetBytes) 0
scalar MultiCell_Standalone.gnb2.pppIf packetDropNoCarrier:count 0
scalar MultiCell_Standalone.gnb2.pppIf packetDropNoCarrier:sum(packetBytes) 0
scalar MultiCell_Standalone.gnb2.x2ppp[0].queue queueLength:last 0
scalar MultiCell_Standalone.gnb2.x2ppp[0].queue queueLength:max 0
scalar MultiCell_Standalone.gnb2.x2ppp[0].queue queueLength:timeavg 0
scalar MultiCell_Standalone.gnb2.x2ppp[0].queue queueBitLength:last 0
scalar MultiCell_Standalone.gnb2.x2ppp[0].queue queueBitLength:max 0
scalar MultiCell_Standalone.gnb2.x2ppp[0].queue queueBitLength:timeavg 0
scalar MultiCell_Standalone.gnb2.x2ppp[0].queue outgoingPackets:count 8
scalar MultiCell_Standalone.gnb2.x2ppp[0].queue outgoingPacketLengths:sum 7024
scalar MultiCell_Standalone.gnb2.x2ppp[0].queue incomingPackets:count 8
scalar MultiCell_Standalone.gnb2.x2ppp[0].queue incomingPacketLengths:sum 7024
scalar MultiCell_Standalone.gnb2.x2ppp[0].queue droppedPacketsQueueOverflow:count 0
scalar MultiCell_Standalone.gnb2.x2ppp[0].queue droppedPacketLengthsQueueOverflow:sum 0
scalar MultiCell_Standalone.gnb2.x2ppp[0].ppp transmissionState:timeavg 3.7359999999999998e-08
scalar MultiCell_Standalone.gnb2.x2ppp[0].ppp rxPkOk:count 6
scalar MultiCell_Standalone.gnb2.x2ppp[0].ppp rxPkOk:sum(packetBytes) 570
scalar MultiCell_Standalone.gnb2.x2ppp[0].ppp txPk:count 8
scalar MultiCell_Standalone.gnb2.x2ppp[0].ppp txPk:sum(packetBytes) 934
scalar MultiCell_Standalone.gnb2.x2ppp[0].ppp rcvdPkFromHl:count 8
scalar MultiCell_Standalone.gnb2.x2ppp[0].ppp rcvdPkFromHl:sum(packetBytes) 878
scalar MultiCell_Standalone.gnb2.x2ppp[0].ppp passedUpPk:count 6
scalar MultiCell_Standalone.gnb2.x2ppp[0].ppp passedUpPk:sum(packetBytes) 528
scalar MultiCell_Standalone.gnb2.x2ppp[0].ppp packetDropIncorrectlyReceived:count 0
scalar MultiCell_Standalone.gnb2.x2ppp[0].ppp packetDropIncorrectlyReceived:sum(packetBytes) 0
scalar MultiCell_Standalone.gnb2.x2ppp[0].ppp packetDropInterfaceDown:count 0
scalar MultiCell_Standalone.gnb2.x2ppp[0].ppp packetDropInterfaceDown:sum(packetBytes) 0
scalar MultiCell_Standalone.gnb2.x2ppp[0] packetDropInterfaceDown:count 0
scalar MultiCell_Standalone.gnb2.x2ppp[0] packetDropInterfaceDown:sum(packetBytes) 0
scalar MultiCell_Standalone.gnb2.x2ppp[0] packetDropNoCarrier:count 0
scalar MultiCell_Standalone.gnb2.x2ppp[0] packetDropNoCarrier:sum(packetBytes) 0
scalar MultiCell_Standalone.gnb2.pppMEHostIf.queue queueLength:last 0
scalar MultiCell_Standalone.gnb2.pppMEHostIf.queue queueLength:max 0
scalar MultiCell_Standalone.gnb2.pppMEHostIf.queue queueLength:timeavg 0
scalar MultiCell_Standalone.gnb2.pppMEHostIf.queue queueBitLength:last 0
scalar MultiCell_Standalone.gnb2.pppMEHostIf.queue queueBitLength:max 0
scalar MultiCell_Standalone.gnb2.pppMEHostIf.queue queueBitLength:timeavg 0
scalar MultiCell_Standalone.gnb2.pppMEHostIf.queue outgoingPackets:count 0
scalar MultiCell_Standalone.gnb2.pppMEHostIf.queue outgoingPacketLengths:sum 0
scalar MultiCell_Standalone.gnb2.pppMEHostIf.queue incomingPackets:count 0
scalar MultiCell_Standalone.gnb2.pppMEHostIf.queue incomingPacketLengths:sum 0
scalar MultiCell_Standalone.gnb2.pppMEHostIf.queue droppedPacketsQueueOverflow:count 0
scalar MultiCell_Standalone.gnb2.pppMEHostIf.queue droppedPacketLengthsQueueOverflow:sum 0
scalar MultiCell_Standalone.gnb2.pppMEHostIf.ppp transmissionState:timeavg 0
scalar MultiCell_Standalone.gnb2.pppMEHostIf.ppp rxPkOk:count 0
scalar MultiCell_Standalone.gnb2.pppMEHostIf.ppp rxPkOk:sum(packetBytes) 0
scalar MultiCell_Standalone.gnb2.pppMEHostIf.ppp txPk:count 0
scalar MultiCell_Standalone.gnb2.pppMEHostIf.ppp txPk:sum(packetBytes) 0
scalar MultiCell_Standalone.gnb2.pppMEHostIf.ppp rcvdPkFromHl:count 0
scalar MultiCell_Standalone.gnb2.pppMEHostIf.ppp rcvdPkFromHl:sum(packetBytes) 0
scalar MultiCell_Standalone.gnb2.pppMEHostIf.ppp passedUpPk:count 0
scalar MultiCell_Standalone.gnb2.pppMEHostIf.ppp passedUpPk:sum(packetBytes) 0
scalar MultiCell_Standalone.gnb2.pppMEHostIf.ppp packetDropIncorrectlyReceived:count 0
scalar MultiCell_Standalone.gnb2.pppMEHostIf.ppp packetDropIncorrectlyReceived:sum(packetBytes) 0
scalar MultiCell_Standalone.gnb2.pppMEHostIf.ppp packetDropInterfaceDown:count 0
scalar MultiCell_Standalone.gnb2.pppMEHostIf.ppp packetDropInterfaceDown:sum(packetBytes) 0
scalar MultiCell_Standalone.gnb2.pppMEHostIf packetDropInterfaceDown:count 0
scalar MultiCell_Standalone.gnb2.pppMEHostIf packetDropInterfaceDown:sum(packetBytes) 0
scalar MultiCell_Standalone.gnb2.pppMEHostIf packetDropNoCarrier:count 0
scalar MultiCell_Standalone.gnb2.pppMEHostIf packetDropNoCarrier:sum(packetBytes) 0
scalar MultiCell_Standalone.gnb2.ipv4.ip packetDropAddressResolutionFailed:count 0
scalar MultiCell_Standalone.gnb2.ipv4.ip packetDropAddressResolutionFailed:sum(packetBytes) 0
scalar MultiCell_Standalone.gnb2.ipv4.ip packetDropHopLimitReached:count 0
scalar MultiCell_Standalone.gnb2.ipv4.ip packetDropHopLimitReached:sum(packetBytes) 0
scalar MultiCell_Standalone.gnb2.ipv4.ip packetDropForwardingDisabled:count 0
scalar MultiCell_Standalone.gnb2.ipv4.ip packetDropForwardingDisabled:sum(packetBytes) 0
scalar MultiCell_Standalone.gnb2.ipv4.ip packetDropNoInterfaceFound:count 0
scalar MultiCell_Standalone.gnb2.ipv4.ip packetDropNoInterfaceFound:sum(packetBytes) 0
scalar MultiCell_Standalone.gnb2.ipv4.ip packetDropNoRouteFound:count 0
scalar MultiCell_Standalone.gnb2.ipv4.ip packetDropNoRouteFound:sum(packetBytes) 0
scalar MultiCell_Standalone.gnb2.ipv4.ip packetDropUndefined:count 0
scalar MultiCell_Standalone.gnb2.ipv4.ip packetDropUndefined:sum(packetBytes) 0
scalar MultiCell_Standalone.gnb2.ipv4.arp arpResolutionFailed:count 0
scalar MultiCell_Standalone.gnb2.ipv4.arp arpResolutionCompleted:count 0
scalar MultiCell_Standalone.gnb2.ipv4.arp arpResolutionInitiated:count 0
scalar MultiCell_Standalone.gnb2.ipv4.arp arpReplySent:count 0
scalar MultiCell_Standalone.gnb2.ipv4.arp arpReplySent:sum(packetBytes) 0
scalar MultiCell_Standalone.gnb2.ipv4.arp arpRequestSent:count 0
scalar MultiCell_Standalone.gnb2.ipv4.arp arpRequestSent:sum(packetBytes) 0
scalar MultiCell_Standalone.gnb2.udp packetReceived:count 2
scalar MultiCell_Standalone.gnb2.udp packetReceived:sum(packetBytes) 288
scalar MultiCell_Standalone.gnb2.udp packetSent:count 2
scalar MultiCell_Standalone.gnb2.udp packetSent:sum(packetBytes) 310
scalar MultiCell_Standalone.gnb2.udp passedUpPk:count 2
scalar MultiCell_Standalone.gnb2.udp droppedPkWrongPort:count 0
scalar MultiCell_Standalone.gnb2.udp droppedPkBadChecksum:count 0
scalar MultiCell_Standalone.gnb2.x2App[0].client packetReceived:count 1
scalar MultiCell_Standalone.gnb2.x2App[0].client packetReceived:sum(packetBytes) 15
scalar MultiCell_Standalone.gnb2.x2App[0].client packetSent:count 0
scalar MultiCell_Standalone.gnb2.x2App[0].client packetSent:sum(packetBytes) 0
scalar MultiCell_Standalone.gnb2.x2App[0].client echoedPk:count 0
scalar MultiCell_Standalone.gnb2.x2App[0].client echoedPk:sum(packetBytes) 0
scalar MultiCell_Standalone.gnb2.x2App[0].server "bytes rcvd" 0
scalar MultiCell_Standalone.gnb2.x2App[0].server throughput -nan
scalar MultiCell_Standalone.ue[0].lo[0].lo rcvdPkFromHl:count 0
scalar MultiCell_Standalone.ue[0].lo[0].lo rcvdPkFromHl:sum(packetBytes) 0
scalar MultiCell_Standalone.ue[0].lo[0].lo passedUpPk:count 0
scalar MultiCell_Standalone.ue[0].lo[0].lo passedUpPk:sum(packetBytes) 0
scalar MultiCell_Standalone.ue[0].lo[0] packetDropInterfaceDown:count 0
scalar MultiCell_Standalone.ue[0].lo[0] packetDropInterfaceDown:sum(packetBytes) 0
scalar MultiCell_Standalone.ue[0].lo[0] packetDropNoCarrier:count 0
scalar MultiCell_Standalone.ue[0].lo[0] packetDropNoCarrier:sum(packetBytes) 0
scalar MultiCell_Standalone.ue[0].cellularNic.rlcMux rlcCellThroughputD2D:simu5g_rateavg -nan
scalar MultiCell_Standalone.ue[0].cellularNic.rlcMux rlcPduThroughputD2D:simu5g_rateavg -nan
scalar MultiCell_Standalone.ue[0].cellularNic.rlcMux rlcPduDelayD2D:mean -nan
scalar MultiCell_Standalone.ue[0].cellularNic.rlcMux rlcThroughputD2D:simu5g_rateavg -nan
scalar MultiCell_Standalone.ue[0].cellularNic.rlcMux rlcDelayD2D:mean -nan
scalar MultiCell_Standalone.ue[0].cellularNic.rlcMux rlcCellThroughputUl:simu5g_rateavg -nan
scalar MultiCell_Standalone.ue[0].cellularNic.rlcMux rlcCellThroughputDl:simu5g_rateavg -nan
scalar MultiCell_Standalone.ue[0].cellularNic.rlcMux rlcPduThroughputUl:simu5g_rateavg -nan
scalar MultiCell_Standalone.ue[0].cellularNic.rlcMux rlcPduThroughputDl:simu5g_rateavg -nan
scalar MultiCell_Standalone.ue[0].cellularNic.rlcMux rlcPduDelayUl:mean -nan
scalar MultiCell_Standalone.ue[0].cellularNic.rlcMux rlcPduDelayDl:mean -nan
scalar MultiCell_Standalone.ue[0].cellularNic.rlcMux rlcThroughputUl:simu5g_rateavg -nan
scalar MultiCell_Standalone.ue[0].cellularNic.rlcMux rlcThroughputDl:simu5g_rateavg -nan
scalar MultiCell_Standalone.ue[0].cellularNic.rlcMux rlcDelayUl:mean -nan
scalar MultiCell_Standalone.ue[0].cellularNic.rlcMux rlcDelayDl:mean -nan
scalar MultiCell_Standalone.ue[0].cellularNic.rlcMux sentPacketToLowerLayer:count 0
scalar MultiCell_Standalone.ue[0].cellularNic.rlcMux sentPacketToLowerLayer:sum(packetBytes) 0
scalar MultiCell_Standalone.ue[0].cellularNic.rlcMux receivedPacketFromLowerLayer:count 0
scalar MultiCell_Standalone.ue[0].cellularNic.rlcMux receivedPacketFromLowerLayer:sum(packetBytes) 0
scalar MultiCell_Standalone.ue[0].cellularNic.mac harqErrorRate_4th_D2D:mean -nan
scalar MultiCell_Standalone.ue[0].cellularNic.mac harqErrorRate_3rd_D2D:mean -nan
scalar MultiCell_Standalone.ue[0].cellularNic.mac harqErrorRate_2nd_D2D:mean -nan
scalar MultiCell_Standalone.ue[0].cellularNic.mac harqErrorRate_1st_D2D:mean -nan
scalar MultiCell_Standalone.ue[0].cellularNic.mac harqErrorRateD2D:mean -nan
scalar MultiCell_Standalone.ue[0].cellularNic.mac macPacketLossD2D:mean -nan
scalar MultiCell_Standalone.ue[0].cellularNic.mac macDelayD2D:mean -nan
scalar MultiCell_Standalone.ue[0].cellularNic.mac macThroughputD2D:simu5g_rateavg -nan
scalar MultiCell_Standalone.ue[0].cellularNic.mac harqTxAttemptsUl:mean -nan
scalar MultiCell_Standalone.ue[0].cellularNic.mac harqTxAttemptsDl:mean -nan
scalar MultiCell_Standalone.ue[0].cellularNic.mac harqErrorRate_4th_Ul:mean -nan
scalar MultiCell_Standalone.ue[0].cellularNic.mac harqErrorRate_4th_Dl:mean -nan
scalar MultiCell_Standalone.ue[0].cellularNic.mac harqErrorRate_3rd_Ul:mean -nan
scalar MultiCell_Standalone.ue[0].cellularNic.mac harqErrorRate_3rd_Dl:mean -nan
scalar MultiCell_Standalone.ue[0].cellularNic.mac harqErrorRate_2nd_Ul:mean -nan
scalar MultiCell_Standalone.ue[0].cellularNic.mac harqErrorRate_2nd_Dl:mean -nan
scalar MultiCell_Standalone.ue[0].cellularNic.mac harqErrorRate_1st_Ul:mean -nan
scalar MultiCell_Standalone.ue[0].cellularNic.mac harqErrorRate_1st_Dl:mean -nan
scalar MultiCell_Standalone.ue[0].cellularNic.mac harqErrorRateUl:mean -nan
scalar MultiCell_Standalone.ue[0].cellularNic.mac harqErrorRateDl:mean -nan
scalar MultiCell_Standalone.ue[0].cellularNic.mac macCellPacketLossUl:mean -nan
scalar MultiCell_Standalone.ue[0].cellularNic.mac macCellPacketLossDl:mean -nan
scalar MultiCell_Standalone.ue[0].cellularNic.mac macPacketLossUl:mean -nan
scalar MultiCell_Standalone.ue[0].cellularNic.mac macPacketLossDl:mean -nan
scalar MultiCell_Standalone.ue[0].cellularNic.mac macThroughputUl:simu5g_rateavg -nan
scalar MultiCell_Standalone.ue[0].cellularNic.mac macThroughputDl:simu5g_rateavg -nan
scalar MultiCell_Standalone.ue[0].cellularNic.mac macDelayUl:mean -nan
scalar MultiCell_Standalone.ue[0].cellularNic.mac macDelayDl:mean -nan
scalar MultiCell_Standalone.ue[0].cellularNic.mac macCellThroughputUl:simu5g_rateavg -nan
scalar MultiCell_Standalone.ue[0].cellularNic.mac macCellThroughputDl:simu5g_rateavg -nan
scalar MultiCell_Standalone.ue[0].cellularNic.mac rcvdD2DModeSwitchNotification:count 0
scalar MultiCell_Standalone.ue[0].cellularNic.mac sentPacketToLowerLayer:count 0
scalar MultiCell_Standalone.ue[0].cellularNic.mac sentPacketToLowerLayer:sum(packetBytes) 0
scalar MultiCell_Standalone.ue[0].cellularNic.mac sentPacketToUpperLayer:count 0
scalar MultiCell_Standalone.ue[0].cellularNic.mac sentPacketToUpperLayer:sum(packetBytes) 0
scalar MultiCell_Standalone.ue[0].cellularNic.mac receivedPacketFromLowerLayer:count 0
scalar MultiCell_Standalone.ue[0].cellularNic.mac receivedPacketFromLowerLayer:sum(packetBytes) 0
scalar MultiCell_Standalone.ue[0].cellularNic.mac receivedPacketFromUpperLayer:count 0
scalar MultiCell_Standalone.ue[0].cellularNic.mac receivedPacketFromUpperLayer:sum(packetBytes) 0
scalar MultiCell_Standalone.ue[0].cellularNic.mac macBufferOverFlowD2D:mean -nan
scalar MultiCell_Standalone.ue[0].cellularNic.mac macBufferOverFlowUl:mean -nan
scalar MultiCell_Standalone.ue[0].cellularNic.mac macBufferOverFlowDl:mean -nan
scalar MultiCell_Standalone.ue[0].cellularNic.phy distance:mean -nan
scalar MultiCell_Standalone.ue[0].cellularNic.phy averageCqiD2D:mean -nan
scalar MultiCell_Standalone.ue[0].cellularNic.phy averageCqiUl:mean -nan
scalar MultiCell_Standalone.ue[0].cellularNic.phy averageCqiUl:count 0
scalar MultiCell_Standalone.ue[0].cellularNic.phy averageCqiDl:mean -nan
scalar MultiCell_Standalone.ue[0].cellularNic.phy averageCqiDl:count 0
scalar MultiCell_Standalone.ue[0].cellularNic.channelModel[0] measuredSinrUl:mean -nan
scalar MultiCell_Standalone.ue[0].cellularNic.channelModel[0] measuredSinrDl:mean -nan
scalar MultiCell_Standalone.ue[0].cellularNic.channelModel[0] rcvdSinrD2D:mean -nan
scalar MultiCell_Standalone.ue[0].cellularNic.channelModel[0] rcvdSinrUl:mean -nan
scalar MultiCell_Standalone.ue[0].cellularNic.channelModel[0] rcvdSinrDl:mean -nan
scalar MultiCell_Standalone.ue[0].cellularNic.nrRlcMux rlcCellThroughputD2D:simu5g_rateavg -nan
scalar MultiCell_Standalone.ue[0].cellularNic.nrRlcMux rlcPduThroughputD2D:simu5g_rateavg -nan
scalar MultiCell_Standalone.ue[0].cellularNic.nrRlcMux rlcPduDelayD2D:mean -nan
scalar MultiCell_Standalone.ue[0].cellularNic.nrRlcMux rlcThroughputD2D:simu5g_rateavg -nan
scalar MultiCell_Standalone.ue[0].cellularNic.nrRlcMux rlcDelayD2D:mean -nan
scalar MultiCell_Standalone.ue[0].cellularNic.nrRlcMux rlcCellThroughputUl:simu5g_rateavg -nan
scalar MultiCell_Standalone.ue[0].cellularNic.nrRlcMux rlcCellThroughputDl:simu5g_rateavg -nan
scalar MultiCell_Standalone.ue[0].cellularNic.nrRlcMux rlcPduThroughputUl:simu5g_rateavg -nan
scalar MultiCell_Standalone.ue[0].cellularNic.nrRlcMux rlcPduThroughputDl:simu5g_rateavg 0
scalar MultiCell_Standalone.ue[0].cellularNic.nrRlcMux rlcPduDelayUl:mean -nan
scalar MultiCell_Standalone.ue[0].cellularNic.nrRlcMux rlcPduDelayDl:mean 0.0040241935483870993
scalar MultiCell_Standalone.ue[0].cellularNic.nrRlcMux rlcThroughputUl:simu5g_rateavg -nan
scalar MultiCell_Standalone.ue[0].cellularNic.nrRlcMux rlcThroughputDl:simu5g_rateavg 6426.5286099981849
scalar MultiCell_Standalone.ue[0].cellularNic.nrRlcMux rlcDelayUl:mean -nan
scalar MultiCell_Standalone.ue[0].cellularNic.nrRlcMux rlcDelayDl:mean 0.0049377851361054603
scalar MultiCell_Standalone.ue[0].cellularNic.nrRlcMux sentPacketToLowerLayer:count 0
scalar MultiCell_Standalone.ue[0].cellularNic.nrRlcMux sentPacketToLowerLayer:sum(packetBytes) 0
scalar MultiCell_Standalone.ue[0].cellularNic.nrRlcMux receivedPacketFromLowerLayer:count 992
scalar MultiCell_Standalone.ue[0].cellularNic.nrRlcMux receivedPacketFromLowerLayer:sum(packetBytes) 130339
scalar MultiCell_Standalone.ue[0].cellularNic.nrMac harqErrorRate_4th_D2D:mean -nan
scalar MultiCell_Standalone.ue[0].cellularNic.nrMac harqErrorRate_3rd_D2D:mean -nan
scalar MultiCell_Standalone.ue[0].cellularNic.nrMac harqErrorRate_2nd_D2D:mean -nan
scalar MultiCell_Standalone.ue[0].cellularNic.nrMac harqErrorRate_1st_D2D:mean -nan
scalar MultiCell_Standalone.ue[0].cellularNic.nrMac harqErrorRateD2D:mean -nan
scalar MultiCell_Standalone.ue[0].cellularNic.nrMac macPacketLossD2D:mean -nan
scalar MultiCell_Standalone.ue[0].cellularNic.nrMac macDelayD2D:mean -nan
scalar MultiCell_Standalone.ue[0].cellularNic.nrMac macThroughputD2D:simu5g_rateavg -nan
scalar MultiCell_Standalone.ue[0].cellularNic.nrMac harqTxAttemptsUl:mean -nan
scalar MultiCell_Standalone.ue[0].cellularNic.nrMac harqTxAttemptsDl:mean 1.0040322580645162
scalar MultiCell_Standalone.ue[0].cellularNic.nrMac harqErrorRate_4th_Ul:mean -nan
scalar MultiCell_Standalone.ue[0].cellularNic.nrMac harqErrorRate_4th_Dl:mean -nan
scalar MultiCell_Standalone.ue[0].cellularNic.nrMac harqErrorRate_3rd_Ul:mean -nan
scalar MultiCell_Standalone.ue[0].cellularNic.nrMac harqErrorRate_3rd_Dl:mean -nan
scalar MultiCell_Standalone.ue[0].cellularNic.nrMac harqErrorRate_2nd_Ul:mean -nan
scalar MultiCell_Standalone.ue[0].cellularNic.nrMac harqErrorRate_2nd_Dl:mean 0
scalar MultiCell_Standalone.ue[0].cellularNic.nrMac harqErrorRate_1st_Ul:mean -nan
scalar MultiCell_Standalone.ue[0].cellularNic.nrMac harqErrorRate_1st_Dl:mean 0.0040322580645161289
scalar MultiCell_Standalone.ue[0].cellularNic.nrMac harqErrorRateUl:mean -nan
scalar MultiCell_Standalone.ue[0].cellularNic.nrMac harqErrorRateDl:mean 0.0040160642570281121
scalar MultiCell_Standalone.ue[0].cellularNic.nrMac macCellPacketLossUl:mean -nan
scalar MultiCell_Standalone.ue[0].cellularNic.nrMac macCellPacketLossDl:mean -nan
scalar MultiCell_Standalone.ue[0].cellularNic.nrMac macPacketLossUl:mean -nan
scalar MultiCell_Standalone.ue[0].cellularNic.nrMac macPacketLossDl:mean 0
scalar MultiCell_Standalone.ue[0].cellularNic.nrMac macThroughputUl:simu5g_rateavg -nan
scalar MultiCell_Standalone.ue[0].cellularNic.nrMac macThroughputDl:simu5g_rateavg 6642.0351174878306
scalar MultiCell_Standalone.ue[0].cellularNic.nrMac macDelayUl:mean -nan
scalar MultiCell_Standalone.ue[0].cellularNic.nrMac macDelayDl:mean 0.0040241935483870993
scalar MultiCell_Standalone.ue[0].cellularNic.nrMac macCellThroughputUl:simu5g_rateavg -nan
scalar MultiCell_Standalone.ue[0].cellularNic.nrMac macCellThroughputDl:simu5g_rateavg -nan
scalar MultiCell_Standalone.ue[0].cellularNic.nrMac rcvdD2DModeSwitchNotification:count 0
scalar MultiCell_Standalone.ue[0].cellularNic.nrMac sentPacketToLowerLayer:count 996
scalar MultiCell_Standalone.ue[0].cellularNic.nrMac sentPacketToLowerLayer:sum(packetBytes) 996
scalar MultiCell_Standalone.ue[0].cellularNic.nrMac sentPacketToUpperLayer:count 992
scalar MultiCell_Standalone.ue[0].cellularNic.nrMac sentPacketToUpperLayer:sum(packetBytes) 130339
scalar MultiCell_Standalone.ue[0].cellularNic.nrMac receivedPacketFromLowerLayer:count 996
scalar MultiCell_Standalone.ue[0].cellularNic.nrMac receivedPacketFromLowerLayer:sum(packetBytes) 132855
scalar MultiCell_Standalone.ue[0].cellularNic.nrMac receivedPacketFromUpperLayer:count 0
scalar MultiCell_Standalone.ue[0].cellularNic.nrMac receivedPacketFromUpperLayer:sum(packetBytes) 0
scalar MultiCell_Standalone.ue[0].cellularNic.nrMac macBufferOverFlowD2D:mean -nan
scalar MultiCell_Standalone.ue[0].cellularNic.nrMac macBufferOverFlowUl:mean -nan
scalar MultiCell_Standalone.ue[0].cellularNic.nrMac macBufferOverFlowDl:mean -nan
scalar MultiCell_Standalone.ue[0].cellularNic.nrPhy distance:mean 236.26130056542502
scalar MultiCell_Standalone.ue[0].cellularNic.nrPhy averageCqiD2D:mean -nan
scalar MultiCell_Standalone.ue[0].cellularNic.nrPhy averageCqiUl:mean -nan
scalar MultiCell_Standalone.ue[0].cellularNic.nrPhy averageCqiUl:count 0
scalar MultiCell_Standalone.ue[0].cellularNic.nrPhy averageCqiDl:mean 14.459839357429718
scalar MultiCell_Standalone.ue[0].cellularNic.nrPhy averageCqiDl:count 996
scalar MultiCell_Standalone.ue[0].cellularNic.nrChannelModel[0] measuredSinrUl:mean 25.357075093258416
scalar MultiCell_Standalone.ue[0].cellularNic.nrChannelModel[0] measuredSinrDl:mean 47.373641039723758
scalar MultiCell_Standalone.ue[0].cellularNic.nrChannelModel[0] rcvdSinrD2D:mean -nan
scalar MultiCell_Standalone.ue[0].cellularNic.nrChannelModel[0] rcvdSinrUl:mean -nan
scalar MultiCell_Standalone.ue[0].cellularNic.nrChannelModel[0] rcvdSinrDl:mean 49.932427058885104
scalar MultiCell_Standalone.ue[0].cellularNic packetDropInterfaceDown:count 0
scalar MultiCell_Standalone.ue[0].cellularNic packetDropInterfaceDown:sum(packetBytes) 0
scalar MultiCell_Standalone.ue[0].cellularNic packetDropNoCarrier:count 0
scalar MultiCell_Standalone.ue[0].cellularNic packetDropNoCarrier:sum(packetBytes) 0
scalar MultiCell_Standalone.ue[0].encap pauseSent:count 0
scalar MultiCell_Standalone.ue[0].encap pauseSent:sum 0
scalar MultiCell_Standalone.ue[0].encap decapPk:count 0
scalar MultiCell_Standalone.ue[0].encap decapPk:sum(packetBytes) 0
scalar MultiCell_Standalone.ue[0].encap encapPk:count 0
scalar MultiCell_Standalone.ue[0].encap encapPk:sum(packetBytes) 0
scalar MultiCell_Standalone.ue[0].ipv4.ip packetDropAddressResolutionFailed:count 0
scalar MultiCell_Standalone.ue[0].ipv4.ip packetDropAddressResolutionFailed:sum(packetBytes) 0
scalar MultiCell_Standalone.ue[0].ipv4.ip packetDropHopLimitReached:count 0
scalar MultiCell_Standalone.ue[0].ipv4.ip packetDropHopLimitReached:sum(packetBytes) 0
scalar MultiCell_Standalone.ue[0].ipv4.ip packetDropForwardingDisabled:count 0
scalar MultiCell_Standalone.ue[0].ipv4.ip packetDropForwardingDisabled:sum(packetBytes) 0
scalar MultiCell_Standalone.ue[0].ipv4.ip packetDropNoInterfaceFound:count 0
scalar MultiCell_Standalone.ue[0].ipv4.ip packetDropNoInterfaceFound:sum(packetBytes) 0
scalar MultiCell_Standalone.ue[0].ipv4.ip packetDropNoRouteFound:count 0
scalar MultiCell_Standalone.ue[0].ipv4.ip packetDropNoRouteFound:sum(packetBytes) 0
scalar MultiCell_Standalone.ue[0].ipv4.ip packetDropUndefined:count 0
scalar MultiCell_Standalone.ue[0].ipv4.ip packetDropUndefined:sum(packetBytes) 0
scalar MultiCell_Standalone.ue[0].ipv4.arp arpResolutionFailed:count 0
scalar MultiCell_Standalone.ue[0].ipv4.arp arpResolutionCompleted:count 0
scalar MultiCell_Standalone.ue[0].ipv4.arp arpResolutionInitiated:count 0
scalar MultiCell_Standalone.ue[0].ipv4.arp arpReplySent:count 0
scalar MultiCell_Standalone.ue[0].ipv4.arp arpReplySent:sum(packetBytes) 0
scalar MultiCell_Standalone.ue[0].ipv4.arp arpRequestSent:count 0
scalar MultiCell_Standalone.ue[0].ipv4.arp arpRequestSent:sum(packetBytes) 0
scalar MultiCell_Standalone.ue[0].udp packetReceived:count 995
scalar MultiCell_Standalone.ue[0].udp packetReceived:sum(packetBytes) 107460
scalar MultiCell_Standalone.ue[0].udp packetSent:count 0
scalar MultiCell_Standalone.ue[0].udp packetSent:sum(packetBytes) 0
scalar MultiCell_Standalone.ue[0].udp passedUpPk:count 995
scalar MultiCell_Standalone.ue[0].udp droppedPkWrongPort:count 0
scalar MultiCell_Standalone.ue[0].udp droppedPkBadChecksum:count 0
scalar MultiCell_Standalone.ue[0].app[0] cbrReceivedBytes:mean 100
scalar MultiCell_Standalone.ue[0].app[0] cbrReceivedBytes:sum 99500
scalar MultiCell_Standalone.ue[0].app[0] cbrReceivedThroughput:simu5g_rateavg 4975
scalar MultiCell_Standalone.ue[0].app[0] cbrJitter:mean -nan
scalar MultiCell_Standalone.ue[0].app[0] cbrFrameDelay:mean 0.0049384747361054041
scalar MultiCell_Standalone.ue[0].app[0] cbrFrameLoss:mean -0.001006036217303885
scalar MultiCell_Standalone.server.ppp[0].queue queueingTime:histogram:count 995
scalar MultiCell_Standalone.server.ppp[0].queue queueingTime:histogram:sumweights 995
scalar MultiCell_Standalone.server.ppp[0].queue queueingTime:histogram:mean 0
scalar MultiCell_Standalone.server.ppp[0].queue queueingTime:histogram:stddev 0
scalar MultiCell_Standalone.server.ppp[0].queue queueingTime:histogram:min 0
scalar MultiCell_Standalone.server.ppp[0].queue queueingTime:histogram:max 0
scalar MultiCell_Standalone.server.ppp[0].queue queueingTime:histogram:numbins 50
scalar MultiCell_Standalone.server.ppp[0].queue queueingTime:histogram:rangemin -0.5
scalar MultiCell_Standalone.server.ppp[0].queue queueingTime:histogram:rangemax 0.5
scalar MultiCell_Standalone.server.ppp[0].queue queueingTime:histogram:underflows 0
scalar MultiCell_Standalone.server.ppp[0].queue queueingTime:histogram:overflows 0
scalar MultiCell_Standalone.server.ppp[0].queue outgoingPacketLengths:histogram:count 995
scalar MultiCell_Standalone.server.ppp[0].queue outgoingPacketLengths:histogram:sumweights 995
scalar MultiCell_Standalone.server.ppp[0].queue outgoingPacketLengths:histogram:mean 1024
scalar MultiCell_Standalone.server.ppp[0].queue outgoingPacketLengths:histogram:stddev 0
scalar MultiCell_Standalone.server.ppp[0].queue outgoingPacketLengths:histogram:min 1024
scalar MultiCell_Standalone.server.ppp[0].queue outgoingPacketLengths:histogram:max 1024
scalar MultiCell_Standalone.server.ppp[0].queue outgoingPacketLengths:histogram:numbins 2
scalar MultiCell_Standalone.server.ppp[0].queue outgoingPacketLengths:histogram:rangemin 1023
scalar MultiCell_Standalone.server.ppp[0].queue outgoingPacketLengths:histogram:rangemax 1025
scalar MultiCell_Standalone.server.ppp[0].queue outgoingPacketLengths:histogram:underflows 0
scalar MultiCell_Standalone.server.ppp[0].queue outgoingPacketLengths:histogram:overflows 0
scalar MultiCell_Standalone.server.ppp[0].queue flowQueueingTime:histogram:count 0
scalar MultiCell_Standalone.server.ppp[0].queue flowQueueingTime:histogram:sumweights 0
[...]
scalar MultiCell_Standalone.gnb2.sctp "Number of Duplicate TSNs Sent 10:count" 0
scalar MultiCell_Standalone.gnb2.sctp "Number of Duplicate TSNs Sent 10:sum" 0
scalar MultiCell_Standalone.gnb2.sctp "Number of Duplicate TSNs Sent 10:sumweights" 0
scalar MultiCell_Standalone.gnb2.sctp "Number of Duplicate TSNs Sent 10:mean" -nan
scalar MultiCell_Standalone.gnb2.sctp "Number of Duplicate TSNs Sent 10:stddev" nan
scalar MultiCell_Standalone.gnb2.sctp "Number of Duplicate TSNs Sent 10:min" inf
scalar MultiCell_Standalone.gnb2.sctp "Number of Duplicate TSNs Sent 10:max" -inf
scalar MultiCell_Standalone.gnb2.sctp "Number of Duplicate TSNs Sent 10:starttime" nan
scalar MultiCell_Standalone.gnb2.sctp "Number of Duplicate TSNs Sent 10:endtime" nan
scalar MultiCell_Standalone.gnb2.sctp "End to End Delay of Association 10:count" 0
scalar MultiCell_Standalone.gnb2.sctp "End to End Delay of Association 10:sum" 0
scalar MultiCell_Standalone.gnb2.sctp "End to End Delay of Association 10:sumweights" 0
scalar MultiCell_Standalone.gnb2.sctp "End to End Delay of Association 10:mean" -nan
scalar MultiCell_Standalone.gnb2.sctp "End to End Delay of Association 10:stddev" nan
scalar MultiCell_Standalone.gnb2.sctp "End to End Delay of Association 10:min" inf
scalar MultiCell_Standalone.gnb2.sctp "End to End Delay of Association 10:max" -inf
scalar MultiCell_Standalone.gnb2.sctp "End to End Delay of Association 10:starttime" nan
scalar MultiCell_Standalone.gnb2.sctp "End to End Delay of Association 10:endtime" nan
scalar MultiCell_Standalone.gnb1.sctp "Number of Gap Blocks in Last SACK of Association 33:count" 0
scalar MultiCell_Standalone.gnb1.sctp "Number of Gap Blocks in Last SACK of Association 33:sum" 0
scalar MultiCell_Standalone.gnb1.sctp "Number of Gap Blocks in Last SACK of Association 33:sumweights" 0
scalar MultiCell_Standalone.gnb1.sctp "Number of Gap Blocks in Last SACK of Association 33:mean" -nan
scalar MultiCell_Standalone.gnb1.sctp "Number of Gap Blocks in Last SACK of Association 33:stddev" nan
scalar MultiCell_Standalone.gnb1.sctp "Number of Gap Blocks in Last SACK of Association 33:min" inf
scalar MultiCell_Standalone.gnb1.sctp "Number of Gap Blocks in Last SACK of Association 33:max" -inf
scalar MultiCell_Standalone.gnb1.sctp "Number of Gap Blocks in Last SACK of Association 33:starttime" nan
scalar MultiCell_Standalone.gnb1.sctp "Number of Gap Blocks in Last SACK of Association 33:endtime" nan
scalar MultiCell_Standalone.gnb1.sctp "Number of Revokable Gap Blocks in SACK 30:count" 0
scalar MultiCell_Standalone.gnb1.sctp "Number of Revokable Gap Blocks in SACK 30:sum" 0
scalar MultiCell_Standalone.gnb1.sctp "Number of Revokable Gap Blocks in SACK 30:sumweights" 0
scalar MultiCell_Standalone.gnb1.sctp "Number of Revokable Gap Blocks in SACK 30:mean" -nan
scalar MultiCell_Standalone.gnb1.sctp "Number of Revokable Gap Blocks in SACK 30:stddev" nan
scalar MultiCell_Standalone.gnb1.sctp "Number of Revokable Gap Blocks in SACK 30:min" inf
scalar MultiCell_Standalone.gnb1.sctp "Number of Revokable Gap Blocks in SACK 30:max" -inf
scalar MultiCell_Standalone.gnb1.sctp "Number of Revokable Gap Blocks in SACK 30:starttime" nan
scalar MultiCell_Standalone.gnb1.sctp "Number of Revokable Gap Blocks in SACK 30:endtime" nan
scalar MultiCell_Standalone.gnb1.sctp "Number of Non-Revokable Gap Blocks in SACK 30:count" 0
scalar MultiCell_Standalone.gnb1.sctp "Number of Non-Revokable Gap Blocks in SACK 30:sum" 0
scalar MultiCell_Standalone.gnb1.sctp "Number of Non-Revokable Gap Blocks in SACK 30:sumweights" 0
scalar MultiCell_Standalone.gnb1.sctp "Number of Non-Revokable Gap Blocks in SACK 30:mean" -nan
scalar MultiCell_Standalone.gnb1.sctp "Number of Non-Revokable Gap Blocks in SACK 30:stddev" nan
scalar MultiCell_Standalone.gnb1.sctp "Number of Non-Revokable Gap Blocks in SACK 30:min" inf
scalar MultiCell_Standalone.gnb1.sctp "Number of Non-Revokable Gap Blocks in SACK 30:max" -inf
scalar MultiCell_Standalone.gnb1.sctp "Number of Non-Revokable Gap Blocks in SACK 30:starttime" nan
scalar MultiCell_Standalone.gnb1.sctp "Number of Non-Revokable Gap Blocks in SACK 30:endtime" nan
scalar MultiCell_Standalone.gnb1.sctp "TSN Acked CumAck 33:10.0.4.2:count" 0
scalar MultiCell_Standalone.gnb1.sctp "TSN Acked CumAck 33:10.0.4.2:sum" 0
scalar MultiCell_Standalone.gnb1.sctp "TSN Acked CumAck 33:10.0.4.2:sumweights" 0
scalar MultiCell_Standalone.gnb1.sctp "TSN Acked CumAck 33:10.0.4.2:mean" -nan
scalar MultiCell_Standalone.gnb1.sctp "TSN Acked CumAck 33:10.0.4.2:stddev" nan
scalar MultiCell_Standalone.gnb1.sctp "TSN Acked CumAck 33:10.0.4.2:min" inf
scalar MultiCell_Standalone.gnb1.sctp "TSN Acked CumAck 33:10.0.4.2:max" -inf
scalar MultiCell_Standalone.gnb1.sctp "TSN Acked CumAck 33:10.0.4.2:starttime" nan
scalar MultiCell_Standalone.gnb1.sctp "TSN Acked CumAck 33:10.0.4.2:endtime" nan
scalar MultiCell_Standalone.gnb1.sctp "RTT 33:10.0.4.2:count" 0
scalar MultiCell_Standalone.gnb1.sctp "RTT 33:10.0.4.2:sum" 0
scalar MultiCell_Standalone.gnb1.sctp "RTT 33:10.0.4.2:sumweights" 0
scalar MultiCell_Standalone.gnb1.sctp "RTT 33:10.0.4.2:mean" -nan
scalar MultiCell_Standalone.gnb1.sctp "RTT 33:10.0.4.2:stddev" nan
scalar MultiCell_Standalone.gnb1.sctp "RTT 33:10.0.4.2:min" inf
scalar MultiCell_Standalone.gnb1.sctp "RTT 33:10.0.4.2:max" -inf
scalar MultiCell_Standalone.gnb1.sctp "RTT 33:10.0.4.2:starttime" nan
scalar MultiCell_Standalone.gnb1.sctp "RTT 33:10.0.4.2:endtime" nan
scalar MultiCell_Standalone.gnb1.sctp "Number of Gap Acked Chunks in Last SACK 33:10.0.2.2:count" 0
scalar MultiCell_Standalone.gnb1.sctp "Number of Gap Acked Chunks in Last SACK 33:10.0.2.2:sum" 0
scalar MultiCell_Standalone.gnb1.sctp "Number of Gap Acked Chunks in Last SACK 33:10.0.2.2:sumweights" 0
scalar MultiCell_Standalone.gnb1.sctp "Number of Gap Acked Chunks in Last SACK 33:10.0.2.2:mean" -nan
scalar MultiCell_Standalone.gnb1.sctp "Number of Gap Acked Chunks in Last SACK 33:10.0.2.2:stddev" nan
scalar MultiCell_Standalone.gnb1.sctp "Number of Gap Acked Chunks in Last SACK 33:10.0.2.2:min" inf
scalar MultiCell_Standalone.gnb1.sctp "Number of Gap Acked Chunks in Last SACK 33:10.0.2.2:max" -inf
scalar MultiCell_Standalone.gnb1.sctp "Number of Gap Acked Chunks in Last SACK 33:10.0.2.2:starttime" nan
scalar MultiCell_Standalone.gnb1.sctp "Number of Gap Acked Chunks in Last SACK 33:10.0.2.2:endtime" nan
scalar MultiCell_Standalone.gnb1.sctp "Number of Non-Revokable Gap Acked Chunks in Last SACK 33:10.0.2.2:count" 0
scalar MultiCell_Standalone.gnb1.sctp "Number of Non-Revokable Gap Acked Chunks in Last SACK 33:10.0.2.2:sum" 0
scalar MultiCell_Standalone.gnb1.sctp "Number of Non-Revokable Gap Acked Chunks in Last SACK 33:10.0.2.2:sumweights" 0
scalar MultiCell_Standalone.gnb1.sctp "Number of Non-Revokable Gap Acked Chunks in Last SACK 33:10.0.2.2:mean" -nan
scalar MultiCell_Standalone.gnb1.sctp "Number of Non-Revokable Gap Acked Chunks in Last SACK 33:10.0.2.2:stddev" nan
scalar MultiCell_Standalone.gnb1.sctp "Number of Non-Revokable Gap Acked Chunks in Last SACK 33:10.0.2.2:min" inf
scalar MultiCell_Standalone.gnb1.sctp "Number of Non-Revokable Gap Acked Chunks in Last SACK 33:10.0.2.2:max" -inf
scalar MultiCell_Standalone.gnb1.sctp "Number of Non-Revokable Gap Acked Chunks in Last SACK 33:10.0.2.2:starttime" nan
scalar MultiCell_Standalone.gnb1.sctp "Number of Non-Revokable Gap Acked Chunks in Last SACK 33:10.0.2.2:endtime" nan
scalar MultiCell_Standalone.gnb1.sctp "Number of Gap Missed Chunks in Last SACK 33:10.0.2.2:count" 0
scalar MultiCell_Standalone.gnb1.sctp "Number of Gap Missed Chunks in Last SACK 33:10.0.2.2:sum" 0
scalar MultiCell_Standalone.gnb1.sctp "Number of Gap Missed Chunks in Last SACK 33:10.0.2.2:sumweights" 0
scalar MultiCell_Standalone.gnb1.sctp "Number of Gap Missed Chunks in Last SACK 33:10.0.2.2:mean" -nan
scalar MultiCell_Standalone.gnb1.sctp "Number of Gap Missed Chunks in Last SACK 33:10.0.2.2:stddev" nan
scalar MultiCell_Standalone.gnb1.sctp "Number of Gap Missed Chunks in Last SACK 33:10.0.2.2:min" inf
scalar MultiCell_Standalone.gnb1.sctp "Number of Gap Missed Chunks in Last SACK 33:10.0.2.2:max" -inf
scalar MultiCell_Standalone.gnb1.sctp "Number of Gap Missed Chunks in Last SACK 33:10.0.2.2:starttime" nan
scalar MultiCell_Standalone.gnb1.sctp "Number of Gap Missed Chunks in Last SACK 33:10.0.2.2:endtime" nan
scalar MultiCell_Standalone.gnb1.sctp "Number of Gap Acked Chunks in Last SACK 33:10.0.3.2:count" 0
scalar MultiCell_Standalone.gnb1.sctp "Number of Gap Acked Chunks in Last SACK 33:10.0.3.2:sum" 0
scalar MultiCell_Standalone.gnb1.sctp "Number of Gap Acked Chunks in Last SACK 33:10.0.3.2:sumweights" 0
scalar MultiCell_Standalone.gnb1.sctp "Number of Gap Acked Chunks in Last SACK 33:10.0.3.2:mean" -nan
scalar MultiCell_Standalone.gnb1.sctp "Number of Gap Acked Chunks in Last SACK 33:10.0.3.2:stddev" nan
scalar MultiCell_Standalone.gnb1.sctp "Number of Gap Acked Chunks in Last SACK 33:10.0.3.2:min" inf
scalar MultiCell_Standalone.gnb1.sctp "Number of Gap Acked Chunks in Last SACK 33:10.0.3.2:max" -inf
scalar MultiCell_Standalone.gnb1.sctp "Number of Gap Acked Chunks in Last SACK 33:10.0.3.2:starttime" nan
scalar MultiCell_Standalone.gnb1.sctp "Number of Gap Acked Chunks in Last SACK 33:10.0.3.2:endtime" nan
scalar MultiCell_Standalone.gnb1.sctp "Number of Non-Revokable Gap Acked Chunks in Last SACK 33:10.0.3.2:count" 0
scalar MultiCell_Standalone.gnb1.sctp "Number of Non-Revokable Gap Acked Chunks in Last SACK 33:10.0.3.2:sum" 0
scalar MultiCell_Standalone.gnb1.sctp "Number of Non-Revokable Gap Acked Chunks in Last SACK 33:10.0.3.2:sumweights" 0
scalar MultiCell_Standalone.gnb1.sctp "Number of Non-Revokable Gap Acked Chunks in Last SACK 33:10.0.3.2:mean" -nan
scalar MultiCell_Standalone.gnb1.sctp "Number of Non-Revokable Gap Acked Chunks in Last SACK 33:10.0.3.2:stddev" nan
scalar MultiCell_Standalone.gnb1.sctp "Number of Non-Revokable Gap Acked Chunks in Last SACK 33:10.0.3.2:min" inf
scalar MultiCell_Standalone.gnb1.sctp "Number of Non-Revokable Gap Acked Chunks in Last SACK 33:10.0.3.2:max" -inf
scalar MultiCell_Standalone.gnb1.sctp "Number of Non-Revokable Gap Acked Chunks in Last SACK 33:10.0.3.2:starttime" nan
scalar MultiCell_Standalone.gnb1.sctp "Number of Non-Revokable Gap Acked Chunks in Last SACK 33:10.0.3.2:endtime" nan
scalar MultiCell_Standalone.gnb1.sctp "Number of Gap Missed Chunks in Last SACK 33:10.0.3.2:count" 0
scalar MultiCell_Standalone.gnb1.sctp "Number of Gap Missed Chunks in Last SACK 33:10.0.3.2:sum" 0
scalar MultiCell_Standalone.gnb1.sctp "Number of Gap Missed Chunks in Last SACK 33:10.0.3.2:sumweights" 0
scalar MultiCell_Standalone.gnb1.sctp "Number of Gap Missed Chunks in Last SACK 33:10.0.3.2:mean" -nan
scalar MultiCell_Standalone.gnb1.sctp "Number of Gap Missed Chunks in Last SACK 33:10.0.3.2:stddev" nan
scalar MultiCell_Standalone.gnb1.sctp "Number of Gap Missed Chunks in Last SACK 33:10.0.3.2:min" inf
scalar MultiCell_Standalone.gnb1.sctp "Number of Gap Missed Chunks in Last SACK 33:10.0.3.2:max" -inf
scalar MultiCell_Standalone.gnb1.sctp "Number of Gap Missed Chunks in Last SACK 33:10.0.3.2:starttime" nan
scalar MultiCell_Standalone.gnb1.sctp "Number of Gap Missed Chunks in Last SACK 33:10.0.3.2:endtime" nan
scalar MultiCell_Standalone.gnb1.sctp "Number of Gap Acked Chunks in Last SACK 33:10.0.4.2:count" 0
scalar MultiCell_Standalone.gnb1.sctp "Number of Gap Acked Chunks in Last SACK 33:10.0.4.2:sum" 0
scalar MultiCell_Standalone.gnb1.sctp "Number of Gap Acked Chunks in Last SACK 33:10.0.4.2:sumweights" 0
scalar MultiCell_Standalone.gnb1.sctp "Number of Gap Acked Chunks in Last SACK 33:10.0.4.2:mean" -nan
scalar MultiCell_Standalone.gnb1.sctp "Number of Gap Acked Chunks in Last SACK 33:10.0.4.2:stddev" nan
scalar MultiCell_Standalone.gnb1.sctp "Number of Gap Acked Chunks in Last SACK 33:10.0.4.2:min" inf
scalar MultiCell_Standalone.gnb1.sctp "Number of Gap Acked Chunks in Last SACK 33:10.0.4.2:max" -inf
scalar MultiCell_Standalone.gnb1.sctp "Number of Gap Acked Chunks in Last SACK 33:10.0.4.2:starttime" nan
scalar MultiCell_Standalone.gnb1.sctp "Number of Gap Acked Chunks in Last SACK 33:10.0.4.2:endtime" nan
scalar MultiCell_Standalone.gnb1.sctp "Number of Non-Revokable Gap Acked Chunks in Last SACK 33:10.0.4.2:count" 0
scalar MultiCell_Standalone.gnb1.sctp "Number of Non-Revokable Gap Acked Chunks in Last SACK 33:10.0.4.2:sum" 0
scalar MultiCell_Standalone.gnb1.sctp "Number of Non-Revokable Gap Acked Chunks in Last SACK 33:10.0.4.2:sumweights" 0
scalar MultiCell_Standalone.gnb1.sctp "Number of Non-Revokable Gap Acked Chunks in Last SACK 33:10.0.4.2:mean" -nan
scalar MultiCell_Standalone.gnb1.sctp "Number of Non-Revokable Gap Acked Chunks in Last SACK 33:10.0.4.2:stddev" nan
scalar MultiCell_Standalone.gnb1.sctp "Number of Non-Revokable Gap Acked Chunks in Last SACK 33:10.0.4.2:min" inf
scalar MultiCell_Standalone.gnb1.sctp "Number of Non-Revokable Gap Acked Chunks in Last SACK 33:10.0.4.2:max" -inf
scalar MultiCell_Standalone.gnb1.sctp "Number of Non-Revokable Gap Acked Chunks in Last SACK 33:10.0.4.2:starttime" nan
scalar MultiCell_Standalone.gnb1.sctp "Number of Non-Revokable Gap Acked Chunks in Last SACK 33:10.0.4.2:endtime" nan
scalar MultiCell_Standalone.gnb1.sctp "Number of Gap Missed Chunks in Last SACK 33:10.0.4.2:count" 0
scalar MultiCell_Standalone.gnb1.sctp "Number of Gap Missed Chunks in Last SACK 33:10.0.4.2:sum" 0
scalar MultiCell_Standalone.gnb1.sctp "Number of Gap Missed Chunks in Last SACK 33:10.0.4.2:sumweights" 0
scalar MultiCell_Standalone.gnb1.sctp "Number of Gap Missed Chunks in Last SACK 33:10.0.4.2:mean" -nan
scalar MultiCell_Standalone.gnb1.sctp "Number of Gap Missed Chunks in Last SACK 33:10.0.4.2:stddev" nan
scalar MultiCell_Standalone.gnb1.sctp "Number of Gap Missed Chunks in Last SACK 33:10.0.4.2:min" inf
scalar MultiCell_Standalone.gnb1.sctp "Number of Gap Missed Chunks in Last SACK 33:10.0.4.2:max" -inf
scalar MultiCell_Standalone.gnb1.sctp "Number of Gap Missed Chunks in Last SACK 33:10.0.4.2:starttime" nan
scalar MultiCell_Standalone.gnb1.sctp "Number of Gap Missed Chunks in Last SACK 33:10.0.4.2:endtime" nan
scalar MultiCell_Standalone.gnb1.sctp "Number of Gap Acked Chunks in Last SACK 33:192.168.5.1:count" 0
scalar MultiCell_Standalone.gnb1.sctp "Number of Gap Acked Chunks in Last SACK 33:192.168.5.1:sum" 0
scalar MultiCell_Standalone.gnb1.sctp "Number of Gap Acked Chunks in Last SACK 33:192.168.5.1:sumweights" 0
scalar MultiCell_Standalone.gnb1.sctp "Number of Gap Acked Chunks in Last SACK 33:192.168.5.1:mean" -nan
scalar MultiCell_Standalone.gnb1.sctp "Number of Gap Acked Chunks in Last SACK 33:192.168.5.1:stddev" nan
scalar MultiCell_Standalone.gnb1.sctp "Number of Gap Acked Chunks in Last SACK 33:192.168.5.1:min" inf
scalar MultiCell_Standalone.gnb1.sctp "Number of Gap Acked Chunks in Last SACK 33:192.168.5.1:max" -inf
scalar MultiCell_Standalone.gnb1.sctp "Number of Gap Acked Chunks in Last SACK 33:192.168.5.1:starttime" nan
scalar MultiCell_Standalone.gnb1.sctp "Number of Gap Acked Chunks in Last SACK 33:192.168.5.1:endtime" nan
scalar MultiCell_Standalone.gnb1.sctp "Number of Non-Revokable Gap Acked Chunks in Last SACK 33:192.168.5.1:count" 0
scalar MultiCell_Standalone.gnb1.sctp "Number of Non-Revokable Gap Acked Chunks in Last SACK 33:192.168.5.1:sum" 0
scalar MultiCell_Standalone.gnb1.sctp "Number of Non-Revokable Gap Acked Chunks in Last SACK 33:192.168.5.1:sumweights" 0
scalar MultiCell_Standalone.gnb1.sctp "Number of Non-Revokable Gap Acked Chunks in Last SACK 33:192.168.5.1:mean" -nan
scalar MultiCell_Standalone.gnb1.sctp "Number of Non-Revokable Gap Acked Chunks in Last SACK 33:192.168.5.1:stddev" nan
scalar MultiCell_Standalone.gnb1.sctp "Number of Non-Revokable Gap Acked Chunks in Last SACK 33:192.168.5.1:min" inf
scalar MultiCell_Standalone.gnb1.sctp "Number of Non-Revokable Gap Acked Chunks in Last SACK 33:192.168.5.1:max" -inf
scalar MultiCell_Standalone.gnb1.sctp "Number of Non-Revokable Gap Acked Chunks in Last SACK 33:192.168.5.1:starttime" nan
scalar MultiCell_Standalone.gnb1.sctp "Number of Non-Revokable Gap Acked Chunks in Last SACK 33:192.168.5.1:endtime" nan
scalar MultiCell_Standalone.gnb1.sctp "Number of Gap Missed Chunks in Last SACK 33:192.168.5.1:count" 0
scalar MultiCell_Standalone.gnb1.sctp "Number of Gap Missed Chunks in Last SACK 33:192.168.5.1:sum" 0
scalar MultiCell_Standalone.gnb1.sctp "Number of Gap Missed Chunks in Last SACK 33:192.168.5.1:sumweights" 0
scalar MultiCell_Standalone.gnb1.sctp "Number of Gap Missed Chunks in Last SACK 33:192.168.5.1:mean" -nan
scalar MultiCell_Standalone.gnb1.sctp "Number of Gap Missed Chunks in Last SACK 33:192.168.5.1:stddev" nan
scalar MultiCell_Standalone.gnb1.sctp "Number of Gap Missed Chunks in Last SACK 33:192.168.5.1:min" inf
scalar MultiCell_Standalone.gnb1.sctp "Number of Gap Missed Chunks in Last SACK 33:192.168.5.1:max" -inf
scalar MultiCell_Standalone.gnb1.sctp "Number of Gap Missed Chunks in Last SACK 33:192.168.5.1:starttime" nan
scalar MultiCell_Standalone.gnb1.sctp "Number of Gap Missed Chunks in Last SACK 33:192.168.5.1:endtime" nan
scalar MultiCell_Standalone.gnb1.sctp "Arwnd in Last SACK 30:count" 0
scalar MultiCell_Standalone.gnb1.sctp "Arwnd in Last SACK 30:sum" 0
scalar MultiCell_Standalone.gnb1.sctp "Arwnd in Last SACK 30:sumweights" 0
scalar MultiCell_Standalone.gnb1.sctp "Arwnd in Last SACK 30:mean" -nan
scalar MultiCell_Standalone.gnb1.sctp "Arwnd in Last SACK 30:stddev" nan
scalar MultiCell_Standalone.gnb1.sctp "Arwnd in Last SACK 30:min" inf
scalar MultiCell_Standalone.gnb1.sctp "Arwnd in Last SACK 30:max" -inf
scalar MultiCell_Standalone.gnb1.sctp "Arwnd in Last SACK 30:starttime" nan
scalar MultiCell_Standalone.gnb1.sctp "Arwnd in Last SACK 30:endtime" nan
scalar MultiCell_Standalone.gnb1.sctp "TSN PseudoCumAck 33:10.0.4.2:count" 0
scalar MultiCell_Standalone.gnb1.sctp "TSN PseudoCumAck 33:10.0.4.2:sum" 0
scalar MultiCell_Standalone.gnb1.sctp "TSN PseudoCumAck 33:10.0.4.2:sumweights" 0
scalar MultiCell_Standalone.gnb1.sctp "TSN PseudoCumAck 33:10.0.4.2:mean" -nan
scalar MultiCell_Standalone.gnb1.sctp "TSN PseudoCumAck 33:10.0.4.2:stddev" nan
scalar MultiCell_Standalone.gnb1.sctp "TSN PseudoCumAck 33:10.0.4.2:min" inf
scalar MultiCell_Standalone.gnb1.sctp "TSN PseudoCumAck 33:10.0.4.2:max" -inf
scalar MultiCell_Standalone.gnb1.sctp "TSN PseudoCumAck 33:10.0.4.2:starttime" nan
scalar MultiCell_Standalone.gnb1.sctp "TSN PseudoCumAck 33:10.0.4.2:endtime" nan
scalar MultiCell_Standalone.gnb1.sctp "TSN RTXPseudoCumAck 33:10.0.4.2:count" 0
scalar MultiCell_Standalone.gnb1.sctp "TSN RTXPseudoCumAck 33:10.0.4.2:sum" 0
scalar MultiCell_Standalone.gnb1.sctp "TSN RTXPseudoCumAck 33:10.0.4.2:sumweights" 0
scalar MultiCell_Standalone.gnb1.sctp "TSN RTXPseudoCumAck 33:10.0.4.2:mean" -nan
scalar MultiCell_Standalone.gnb1.sctp "TSN RTXPseudoCumAck 33:10.0.4.2:stddev" nan
scalar MultiCell_Standalone.gnb1.sctp "TSN RTXPseudoCumAck 33:10.0.4.2:min" inf
scalar MultiCell_Standalone.gnb1.sctp "TSN RTXPseudoCumAck 33:10.0.4.2:max" -inf
scalar MultiCell_Standalone.gnb1.sctp "TSN RTXPseudoCumAck 33:10.0.4.2:starttime" nan
scalar MultiCell_Standalone.gnb1.sctp "TSN RTXPseudoCumAck 33:10.0.4.2:endtime" nan
scalar MultiCell_Standalone.gnb1.sctp "Partial Bytes Acked 33:10.0.4.2:count" 0
scalar MultiCell_Standalone.gnb1.sctp "Partial Bytes Acked 33:10.0.4.2:sum" 0
scalar MultiCell_Standalone.gnb1.sctp "Partial Bytes Acked 33:10.0.4.2:sumweights" 0
scalar MultiCell_Standalone.gnb1.sctp "Partial Bytes Acked 33:10.0.4.2:mean" -nan
scalar MultiCell_Standalone.gnb1.sctp "Partial Bytes Acked 33:10.0.4.2:stddev" nan
scalar MultiCell_Standalone.gnb1.sctp "Partial Bytes Acked 33:10.0.4.2:min" inf
scalar MultiCell_Standalone.gnb1.sctp "Partial Bytes Acked 33:10.0.4.2:max" -inf
scalar MultiCell_Standalone.gnb1.sctp "Partial Bytes Acked 33:10.0.4.2:starttime" nan
scalar MultiCell_Standalone.gnb1.sctp "Partial Bytes Acked 33:10.0.4.2:endtime" nan

