version 3
run MultiplePairs-UDP-Infra-0-20260710-11:28:08-707243
attr configname MultiplePairs-UDP-Infra
attr datetime 20260710-11:28:08
attr datetimef 20260710-112808
attr experiment MultiplePairs-UDP-Infra
attr inifile omnetpp.ini
attr iterationvars $numPairs=5
attr iterationvarsd numPairs=5
attr iterationvarsf numPairs=5-
attr measurement $numPairs=5
attr network simu5g.simulations.lte.networks.SingleCell_D2D
attr processid 707243
attr repetition 0
attr replication #0
attr resultdir results
attr runnumber 0
attr seedset 0
itervar numPairs 5
config **.param-recording false
config image-path /home/andras/projects/Simu5G-fork/simu5g-fork/images
config output-scalar-file results/omnetpp.ini-MultiplePairs-UDP-Infra-#0.sca
config output-scalar-precision 17
config output-vector-file results/omnetpp.ini-MultiplePairs-UDP-Infra-#0.vec
config output-vector-precision 17
config record-eventlog false
config sim-time-limit 5s
config extends MultiplePairs
config *.ueD2D*[*].numApps 1
config *.ueD2DTx[*].app[*].typename VoipSender
config *.ueD2DTx[*].app[*].localPort 3088+ancestorIndex(0)
config *.ueD2DTx[*].app[*].startTime uniform(0s,0.02s)
config *.ueD2DTx[*].app[*].destAddress "\"ueD2DRx[\" + string(ancestorIndex(1)) + \"]\""
config *.ueD2DTx[*].app[*].destPort 1000
config *.ueD2DRx[*].app[*].typename VoipReceiver
config *.ueD2DRx[*].app[*].localPort 1000
config *.eNB*.cellularNic.typename LteNicEnb
config *.ueD2D*[*].cellularNic.typename LteNicUe
config **.amcMode "\"AUTO\""
config network simu5g.simulations.lte.networks.SingleCell_D2D
config *.eNB.mobility.initFromDisplayString false
config *.eNB.mobility.initialX 300m
config *.eNB.mobility.initialY 300m
config *.numUeCell 0
config *.numUeD2DTx 5
config *.numUeD2DRx 5
config *.ue*[*].servingNodeId 1
config *.ue*[*].mobility.initFromDisplayString false
config *.ueD2D*[*].mobility.initialX uniform(290m,310m)
config *.ueD2D*[*].mobility.initialY uniform(340m,350m)
config sim-time-limit 5s
config warmup-period 0s
config repeat 3
config **.routingRecorder.enabled false
config output-scalar-file results/MultiplePairs-UDP-Infra/0.sca
config output-vector-file results/MultiplePairs-UDP-Infra/0.vec
config seed-set 0
config **.vector-recording true
config **.mobility.constraintAreaMinZ 0m
config **.mobility.constraintAreaMaxZ 0m
config **.numBands 50
config *.configurator.config "xmldoc(\"./demo.xml\")"

scalar SingleCell_D2D.server.lo[0].lo rcvdPkFromHl:count 0
scalar SingleCell_D2D.server.lo[0].lo rcvdPkFromHl:sum(packetBytes) 0
scalar SingleCell_D2D.server.lo[0].lo passedUpPk:count 0
scalar SingleCell_D2D.server.lo[0].lo passedUpPk:sum(packetBytes) 0
scalar SingleCell_D2D.server.lo[0] packetDropInterfaceDown:count 0
scalar SingleCell_D2D.server.lo[0] packetDropInterfaceDown:sum(packetBytes) 0
scalar SingleCell_D2D.server.lo[0] packetDropNoCarrier:count 0
scalar SingleCell_D2D.server.lo[0] packetDropNoCarrier:sum(packetBytes) 0
scalar SingleCell_D2D.server.ppp[0].queue queueLength:last 0
scalar SingleCell_D2D.server.ppp[0].queue queueLength:max 0
scalar SingleCell_D2D.server.ppp[0].queue queueLength:timeavg 0
scalar SingleCell_D2D.server.ppp[0].queue queueBitLength:last 0
scalar SingleCell_D2D.server.ppp[0].queue queueBitLength:max 0
scalar SingleCell_D2D.server.ppp[0].queue queueBitLength:timeavg 0
scalar SingleCell_D2D.server.ppp[0].queue outgoingPackets:count 0
scalar SingleCell_D2D.server.ppp[0].queue outgoingPacketLengths:sum 0
scalar SingleCell_D2D.server.ppp[0].queue incomingPackets:count 0
scalar SingleCell_D2D.server.ppp[0].queue incomingPacketLengths:sum 0
scalar SingleCell_D2D.server.ppp[0].queue droppedPacketsQueueOverflow:count 0
scalar SingleCell_D2D.server.ppp[0].queue droppedPacketLengthsQueueOverflow:sum 0
scalar SingleCell_D2D.server.ppp[0].ppp transmissionState:timeavg 0
scalar SingleCell_D2D.server.ppp[0].ppp rxPkOk:count 0
scalar SingleCell_D2D.server.ppp[0].ppp rxPkOk:sum(packetBytes) 0
scalar SingleCell_D2D.server.ppp[0].ppp txPk:count 0
scalar SingleCell_D2D.server.ppp[0].ppp txPk:sum(packetBytes) 0
scalar SingleCell_D2D.server.ppp[0].ppp rcvdPkFromHl:count 0
scalar SingleCell_D2D.server.ppp[0].ppp rcvdPkFromHl:sum(packetBytes) 0
scalar SingleCell_D2D.server.ppp[0].ppp passedUpPk:count 0
scalar SingleCell_D2D.server.ppp[0].ppp passedUpPk:sum(packetBytes) 0
scalar SingleCell_D2D.server.ppp[0].ppp packetDropIncorrectlyReceived:count 0
scalar SingleCell_D2D.server.ppp[0].ppp packetDropIncorrectlyReceived:sum(packetBytes) 0
scalar SingleCell_D2D.server.ppp[0].ppp packetDropInterfaceDown:count 0
scalar SingleCell_D2D.server.ppp[0].ppp packetDropInterfaceDown:sum(packetBytes) 0
scalar SingleCell_D2D.server.ppp[0] packetDropInterfaceDown:count 0
scalar SingleCell_D2D.server.ppp[0] packetDropInterfaceDown:sum(packetBytes) 0
scalar SingleCell_D2D.server.ppp[0] packetDropNoCarrier:count 0
scalar SingleCell_D2D.server.ppp[0] packetDropNoCarrier:sum(packetBytes) 0
scalar SingleCell_D2D.server.ipv4.ip packetDropAddressResolutionFailed:count 0
scalar SingleCell_D2D.server.ipv4.ip packetDropAddressResolutionFailed:sum(packetBytes) 0
scalar SingleCell_D2D.server.ipv4.ip packetDropHopLimitReached:count 0
scalar SingleCell_D2D.server.ipv4.ip packetDropHopLimitReached:sum(packetBytes) 0
scalar SingleCell_D2D.server.ipv4.ip packetDropForwardingDisabled:count 0
scalar SingleCell_D2D.server.ipv4.ip packetDropForwardingDisabled:sum(packetBytes) 0
scalar SingleCell_D2D.server.ipv4.ip packetDropNoInterfaceFound:count 0
scalar SingleCell_D2D.server.ipv4.ip packetDropNoInterfaceFound:sum(packetBytes) 0
scalar SingleCell_D2D.server.ipv4.ip packetDropNoRouteFound:count 0
scalar SingleCell_D2D.server.ipv4.ip packetDropNoRouteFound:sum(packetBytes) 0
scalar SingleCell_D2D.server.ipv4.ip packetDropUndefined:count 0
scalar SingleCell_D2D.server.ipv4.ip packetDropUndefined:sum(packetBytes) 0
scalar SingleCell_D2D.server.ipv4.arp arpResolutionFailed:count 0
scalar SingleCell_D2D.server.ipv4.arp arpResolutionCompleted:count 0
scalar SingleCell_D2D.server.ipv4.arp arpResolutionInitiated:count 0
scalar SingleCell_D2D.server.ipv4.arp arpReplySent:count 0
scalar SingleCell_D2D.server.ipv4.arp arpReplySent:sum(packetBytes) 0
scalar SingleCell_D2D.server.ipv4.arp arpRequestSent:count 0
scalar SingleCell_D2D.server.ipv4.arp arpRequestSent:sum(packetBytes) 0
scalar SingleCell_D2D.server.udp packetReceived:count 0
scalar SingleCell_D2D.server.udp packetReceived:sum(packetBytes) 0
scalar SingleCell_D2D.server.udp packetSent:count 0
scalar SingleCell_D2D.server.udp packetSent:sum(packetBytes) 0
scalar SingleCell_D2D.server.udp passedUpPk:count 0
scalar SingleCell_D2D.server.udp droppedPkWrongPort:count 0
scalar SingleCell_D2D.server.udp droppedPkBadChecksum:count 0
scalar SingleCell_D2D.router.lo[0].lo rcvdPkFromHl:count 0
scalar SingleCell_D2D.router.lo[0].lo rcvdPkFromHl:sum(packetBytes) 0
scalar SingleCell_D2D.router.lo[0].lo passedUpPk:count 0
scalar SingleCell_D2D.router.lo[0].lo passedUpPk:sum(packetBytes) 0
scalar SingleCell_D2D.router.lo[0] packetDropInterfaceDown:count 0
scalar SingleCell_D2D.router.lo[0] packetDropInterfaceDown:sum(packetBytes) 0
scalar SingleCell_D2D.router.lo[0] packetDropNoCarrier:count 0
scalar SingleCell_D2D.router.lo[0] packetDropNoCarrier:sum(packetBytes) 0
scalar SingleCell_D2D.router.ppp[0].queue queueLength:last 0
scalar SingleCell_D2D.router.ppp[0].queue queueLength:max 0
scalar SingleCell_D2D.router.ppp[0].queue queueLength:timeavg 0
scalar SingleCell_D2D.router.ppp[0].queue queueBitLength:last 0
scalar SingleCell_D2D.router.ppp[0].queue queueBitLength:max 0
scalar SingleCell_D2D.router.ppp[0].queue queueBitLength:timeavg 0
scalar SingleCell_D2D.router.ppp[0].queue outgoingPackets:count 0
scalar SingleCell_D2D.router.ppp[0].queue outgoingPacketLengths:sum 0
scalar SingleCell_D2D.router.ppp[0].queue incomingPackets:count 0
scalar SingleCell_D2D.router.ppp[0].queue incomingPacketLengths:sum 0
scalar SingleCell_D2D.router.ppp[0].queue droppedPacketsQueueOverflow:count 0
scalar SingleCell_D2D.router.ppp[0].queue droppedPacketLengthsQueueOverflow:sum 0
scalar SingleCell_D2D.router.ppp[0].ppp transmissionState:timeavg 0
scalar SingleCell_D2D.router.ppp[0].ppp rxPkOk:count 0
scalar SingleCell_D2D.router.ppp[0].ppp rxPkOk:sum(packetBytes) 0
scalar SingleCell_D2D.router.ppp[0].ppp txPk:count 0
scalar SingleCell_D2D.router.ppp[0].ppp txPk:sum(packetBytes) 0
scalar SingleCell_D2D.router.ppp[0].ppp rcvdPkFromHl:count 0
scalar SingleCell_D2D.router.ppp[0].ppp rcvdPkFromHl:sum(packetBytes) 0
scalar SingleCell_D2D.router.ppp[0].ppp passedUpPk:count 0
scalar SingleCell_D2D.router.ppp[0].ppp passedUpPk:sum(packetBytes) 0
scalar SingleCell_D2D.router.ppp[0].ppp packetDropIncorrectlyReceived:count 0
scalar SingleCell_D2D.router.ppp[0].ppp packetDropIncorrectlyReceived:sum(packetBytes) 0
scalar SingleCell_D2D.router.ppp[0].ppp packetDropInterfaceDown:count 0
scalar SingleCell_D2D.router.ppp[0].ppp packetDropInterfaceDown:sum(packetBytes) 0
scalar SingleCell_D2D.router.ppp[0] packetDropInterfaceDown:count 0
scalar SingleCell_D2D.router.ppp[0] packetDropInterfaceDown:sum(packetBytes) 0
scalar SingleCell_D2D.router.ppp[0] packetDropNoCarrier:count 0
scalar SingleCell_D2D.router.ppp[0] packetDropNoCarrier:sum(packetBytes) 0
scalar SingleCell_D2D.router.ppp[1].queue queueLength:last 0
scalar SingleCell_D2D.router.ppp[1].queue queueLength:max 0
scalar SingleCell_D2D.router.ppp[1].queue queueLength:timeavg 0
scalar SingleCell_D2D.router.ppp[1].queue queueBitLength:last 0
scalar SingleCell_D2D.router.ppp[1].queue queueBitLength:max 0
scalar SingleCell_D2D.router.ppp[1].queue queueBitLength:timeavg 0
scalar SingleCell_D2D.router.ppp[1].queue outgoingPackets:count 0
scalar SingleCell_D2D.router.ppp[1].queue outgoingPacketLengths:sum 0
scalar SingleCell_D2D.router.ppp[1].queue incomingPackets:count 0
scalar SingleCell_D2D.router.ppp[1].queue incomingPacketLengths:sum 0
scalar SingleCell_D2D.router.ppp[1].queue droppedPacketsQueueOverflow:count 0
scalar SingleCell_D2D.router.ppp[1].queue droppedPacketLengthsQueueOverflow:sum 0
scalar SingleCell_D2D.router.ppp[1].ppp transmissionState:timeavg 0
scalar SingleCell_D2D.router.ppp[1].ppp rxPkOk:count 0
scalar SingleCell_D2D.router.ppp[1].ppp rxPkOk:sum(packetBytes) 0
scalar SingleCell_D2D.router.ppp[1].ppp txPk:count 0
scalar SingleCell_D2D.router.ppp[1].ppp txPk:sum(packetBytes) 0
scalar SingleCell_D2D.router.ppp[1].ppp rcvdPkFromHl:count 0
scalar SingleCell_D2D.router.ppp[1].ppp rcvdPkFromHl:sum(packetBytes) 0
scalar SingleCell_D2D.router.ppp[1].ppp passedUpPk:count 0
scalar SingleCell_D2D.router.ppp[1].ppp passedUpPk:sum(packetBytes) 0
scalar SingleCell_D2D.router.ppp[1].ppp packetDropIncorrectlyReceived:count 0
scalar SingleCell_D2D.router.ppp[1].ppp packetDropIncorrectlyReceived:sum(packetBytes) 0
scalar SingleCell_D2D.router.ppp[1].ppp packetDropInterfaceDown:count 0
scalar SingleCell_D2D.router.ppp[1].ppp packetDropInterfaceDown:sum(packetBytes) 0
scalar SingleCell_D2D.router.ppp[1] packetDropInterfaceDown:count 0
scalar SingleCell_D2D.router.ppp[1] packetDropInterfaceDown:sum(packetBytes) 0
scalar SingleCell_D2D.router.ppp[1] packetDropNoCarrier:count 0
scalar SingleCell_D2D.router.ppp[1] packetDropNoCarrier:sum(packetBytes) 0
scalar SingleCell_D2D.router.ipv4.ip packetDropAddressResolutionFailed:count 0
scalar SingleCell_D2D.router.ipv4.ip packetDropAddressResolutionFailed:sum(packetBytes) 0
scalar SingleCell_D2D.router.ipv4.ip packetDropHopLimitReached:count 0
scalar SingleCell_D2D.router.ipv4.ip packetDropHopLimitReached:sum(packetBytes) 0
scalar SingleCell_D2D.router.ipv4.ip packetDropForwardingDisabled:count 0
scalar SingleCell_D2D.router.ipv4.ip packetDropForwardingDisabled:sum(packetBytes) 0
scalar SingleCell_D2D.router.ipv4.ip packetDropNoInterfaceFound:count 0
scalar SingleCell_D2D.router.ipv4.ip packetDropNoInterfaceFound:sum(packetBytes) 0
scalar SingleCell_D2D.router.ipv4.ip packetDropNoRouteFound:count 0
scalar SingleCell_D2D.router.ipv4.ip packetDropNoRouteFound:sum(packetBytes) 0
scalar SingleCell_D2D.router.ipv4.ip packetDropUndefined:count 0
scalar SingleCell_D2D.router.ipv4.ip packetDropUndefined:sum(packetBytes) 0
scalar SingleCell_D2D.router.ipv4.arp arpResolutionFailed:count 0
scalar SingleCell_D2D.router.ipv4.arp arpResolutionCompleted:count 0
scalar SingleCell_D2D.router.ipv4.arp arpResolutionInitiated:count 0
scalar SingleCell_D2D.router.ipv4.arp arpReplySent:count 0
scalar SingleCell_D2D.router.ipv4.arp arpReplySent:sum(packetBytes) 0
scalar SingleCell_D2D.router.ipv4.arp arpRequestSent:count 0
scalar SingleCell_D2D.router.ipv4.arp arpRequestSent:sum(packetBytes) 0
scalar SingleCell_D2D.pgw.lo[0].lo rcvdPkFromHl:count 0
scalar SingleCell_D2D.pgw.lo[0].lo rcvdPkFromHl:sum(packetBytes) 0
scalar SingleCell_D2D.pgw.lo[0].lo passedUpPk:count 0
scalar SingleCell_D2D.pgw.lo[0].lo passedUpPk:sum(packetBytes) 0
scalar SingleCell_D2D.pgw.lo[0] packetDropInterfaceDown:count 0
scalar SingleCell_D2D.pgw.lo[0] packetDropInterfaceDown:sum(packetBytes) 0
scalar SingleCell_D2D.pgw.lo[0] packetDropNoCarrier:count 0
scalar SingleCell_D2D.pgw.lo[0] packetDropNoCarrier:sum(packetBytes) 0
scalar SingleCell_D2D.pgw.ppp[0].queue queueLength:last 0
scalar SingleCell_D2D.pgw.ppp[0].queue queueLength:max 0
scalar SingleCell_D2D.pgw.ppp[0].queue queueLength:timeavg 0
scalar SingleCell_D2D.pgw.ppp[0].queue queueBitLength:last 0
scalar SingleCell_D2D.pgw.ppp[0].queue queueBitLength:max 0
scalar SingleCell_D2D.pgw.ppp[0].queue queueBitLength:timeavg 0
scalar SingleCell_D2D.pgw.ppp[0].queue outgoingPackets:count 0
scalar SingleCell_D2D.pgw.ppp[0].queue outgoingPacketLengths:sum 0
scalar SingleCell_D2D.pgw.ppp[0].queue incomingPackets:count 0
scalar SingleCell_D2D.pgw.ppp[0].queue incomingPacketLengths:sum 0
scalar SingleCell_D2D.pgw.ppp[0].queue droppedPacketsQueueOverflow:count 0
scalar SingleCell_D2D.pgw.ppp[0].queue droppedPacketLengthsQueueOverflow:sum 0
scalar SingleCell_D2D.pgw.ppp[0].ppp transmissionState:timeavg 0
scalar SingleCell_D2D.pgw.ppp[0].ppp rxPkOk:count 0
scalar SingleCell_D2D.pgw.ppp[0].ppp rxPkOk:sum(packetBytes) 0
scalar SingleCell_D2D.pgw.ppp[0].ppp txPk:count 0
scalar SingleCell_D2D.pgw.ppp[0].ppp txPk:sum(packetBytes) 0
scalar SingleCell_D2D.pgw.ppp[0].ppp rcvdPkFromHl:count 0
scalar SingleCell_D2D.pgw.ppp[0].ppp rcvdPkFromHl:sum(packetBytes) 0
scalar SingleCell_D2D.pgw.ppp[0].ppp passedUpPk:count 0
scalar SingleCell_D2D.pgw.ppp[0].ppp passedUpPk:sum(packetBytes) 0
scalar SingleCell_D2D.pgw.ppp[0].ppp packetDropIncorrectlyReceived:count 0
scalar SingleCell_D2D.pgw.ppp[0].ppp packetDropIncorrectlyReceived:sum(packetBytes) 0
scalar SingleCell_D2D.pgw.ppp[0].ppp packetDropInterfaceDown:count 0
scalar SingleCell_D2D.pgw.ppp[0].ppp packetDropInterfaceDown:sum(packetBytes) 0
scalar SingleCell_D2D.pgw.ppp[0] packetDropInterfaceDown:count 0
scalar SingleCell_D2D.pgw.ppp[0] packetDropInterfaceDown:sum(packetBytes) 0
scalar SingleCell_D2D.pgw.ppp[0] packetDropNoCarrier:count 0
scalar SingleCell_D2D.pgw.ppp[0] packetDropNoCarrier:sum(packetBytes) 0
scalar SingleCell_D2D.pgw.ipv4.ip packetDropAddressResolutionFailed:count 0
scalar SingleCell_D2D.pgw.ipv4.ip packetDropAddressResolutionFailed:sum(packetBytes) 0
scalar SingleCell_D2D.pgw.ipv4.ip packetDropHopLimitReached:count 0
scalar SingleCell_D2D.pgw.ipv4.ip packetDropHopLimitReached:sum(packetBytes) 0
scalar SingleCell_D2D.pgw.ipv4.ip packetDropForwardingDisabled:count 0
scalar SingleCell_D2D.pgw.ipv4.ip packetDropForwardingDisabled:sum(packetBytes) 0
scalar SingleCell_D2D.pgw.ipv4.ip packetDropNoInterfaceFound:count 0
scalar SingleCell_D2D.pgw.ipv4.ip packetDropNoInterfaceFound:sum(packetBytes) 0
scalar SingleCell_D2D.pgw.ipv4.ip packetDropNoRouteFound:count 0
scalar SingleCell_D2D.pgw.ipv4.ip packetDropNoRouteFound:sum(packetBytes) 0
scalar SingleCell_D2D.pgw.ipv4.ip packetDropUndefined:count 0
scalar SingleCell_D2D.pgw.ipv4.ip packetDropUndefined:sum(packetBytes) 0
scalar SingleCell_D2D.pgw.ipv4.arp arpResolutionFailed:count 0
scalar SingleCell_D2D.pgw.ipv4.arp arpResolutionCompleted:count 0
scalar SingleCell_D2D.pgw.ipv4.arp arpResolutionInitiated:count 0
scalar SingleCell_D2D.pgw.ipv4.arp arpReplySent:count 0
scalar SingleCell_D2D.pgw.ipv4.arp arpReplySent:sum(packetBytes) 0
scalar SingleCell_D2D.pgw.ipv4.arp arpRequestSent:count 0
scalar SingleCell_D2D.pgw.ipv4.arp arpRequestSent:sum(packetBytes) 0
scalar SingleCell_D2D.pgw.pppIf.queue queueLength:last 0
scalar SingleCell_D2D.pgw.pppIf.queue queueLength:max 0
scalar SingleCell_D2D.pgw.pppIf.queue queueLength:timeavg 0
scalar SingleCell_D2D.pgw.pppIf.queue queueBitLength:last 0
scalar SingleCell_D2D.pgw.pppIf.queue queueBitLength:max 0
scalar SingleCell_D2D.pgw.pppIf.queue queueBitLength:timeavg 0
scalar SingleCell_D2D.pgw.pppIf.queue outgoingPackets:count 0
scalar SingleCell_D2D.pgw.pppIf.queue outgoingPacketLengths:sum 0
scalar SingleCell_D2D.pgw.pppIf.queue incomingPackets:count 0
scalar SingleCell_D2D.pgw.pppIf.queue incomingPacketLengths:sum 0
scalar SingleCell_D2D.pgw.pppIf.queue droppedPacketsQueueOverflow:count 0
scalar SingleCell_D2D.pgw.pppIf.queue droppedPacketLengthsQueueOverflow:sum 0
scalar SingleCell_D2D.pgw.pppIf.ppp transmissionState:timeavg 0
scalar SingleCell_D2D.pgw.pppIf.ppp rxPkOk:count 0
scalar SingleCell_D2D.pgw.pppIf.ppp rxPkOk:sum(packetBytes) 0
scalar SingleCell_D2D.pgw.pppIf.ppp txPk:count 0
scalar SingleCell_D2D.pgw.pppIf.ppp txPk:sum(packetBytes) 0
scalar SingleCell_D2D.pgw.pppIf.ppp rcvdPkFromHl:count 0
scalar SingleCell_D2D.pgw.pppIf.ppp rcvdPkFromHl:sum(packetBytes) 0
scalar SingleCell_D2D.pgw.pppIf.ppp passedUpPk:count 0
scalar SingleCell_D2D.pgw.pppIf.ppp passedUpPk:sum(packetBytes) 0
scalar SingleCell_D2D.pgw.pppIf.ppp packetDropIncorrectlyReceived:count 0
scalar SingleCell_D2D.pgw.pppIf.ppp packetDropIncorrectlyReceived:sum(packetBytes) 0
scalar SingleCell_D2D.pgw.pppIf.ppp packetDropInterfaceDown:count 0
scalar SingleCell_D2D.pgw.pppIf.ppp packetDropInterfaceDown:sum(packetBytes) 0
scalar SingleCell_D2D.pgw.pppIf packetDropInterfaceDown:count 0
scalar SingleCell_D2D.pgw.pppIf packetDropInterfaceDown:sum(packetBytes) 0
scalar SingleCell_D2D.pgw.pppIf packetDropNoCarrier:count 0
scalar SingleCell_D2D.pgw.pppIf packetDropNoCarrier:sum(packetBytes) 0
scalar SingleCell_D2D.pgw.udp packetReceived:count 0
scalar SingleCell_D2D.pgw.udp packetReceived:sum(packetBytes) 0
scalar SingleCell_D2D.pgw.udp packetSent:count 0
scalar SingleCell_D2D.pgw.udp packetSent:sum(packetBytes) 0
scalar SingleCell_D2D.pgw.udp passedUpPk:count 0
scalar SingleCell_D2D.pgw.udp droppedPkWrongPort:count 0
scalar SingleCell_D2D.pgw.udp droppedPkBadChecksum:count 0
scalar SingleCell_D2D.eNB.cellularNic.pdcp sentPacketToLowerLayer:count 880
scalar SingleCell_D2D.eNB.cellularNic.pdcp sentPacketToLowerLayer:sum(packetBytes) 60720
scalar SingleCell_D2D.eNB.cellularNic.pdcp sentPacketToUpperLayer:count 880
scalar SingleCell_D2D.eNB.cellularNic.pdcp sentPacketToUpperLayer:sum(packetBytes) 59840
scalar SingleCell_D2D.eNB.cellularNic.pdcp receivedPacketFromLowerLayer:count 880
scalar SingleCell_D2D.eNB.cellularNic.pdcp receivedPacketFromLowerLayer:sum(packetBytes) 60720
scalar SingleCell_D2D.eNB.cellularNic.pdcp receivedPacketFromUpperLayer:count 880
scalar SingleCell_D2D.eNB.cellularNic.pdcp receivedPacketFromUpperLayer:sum(packetBytes) 59840
scalar SingleCell_D2D.eNB.cellularNic.rlc.tm rlcPacketLossUl:mean -nan
scalar SingleCell_D2D.eNB.cellularNic.rlc.tm rlcPacketLossUl:sum 0
scalar SingleCell_D2D.eNB.cellularNic.rlc.tm rlcPacketLossDl:mean -nan
scalar SingleCell_D2D.eNB.cellularNic.rlc.tm rlcPacketLossDl:sum 0
scalar SingleCell_D2D.eNB.cellularNic.rlc.tm sentPacketToLowerLayer:count 0
scalar SingleCell_D2D.eNB.cellularNic.rlc.tm sentPacketToLowerLayer:sum(packetBytes) 0
scalar SingleCell_D2D.eNB.cellularNic.rlc.tm sentPacketToUpperLayer:count 0
scalar SingleCell_D2D.eNB.cellularNic.rlc.tm sentPacketToUpperLayer:sum(packetBytes) 0
scalar SingleCell_D2D.eNB.cellularNic.rlc.tm receivedPacketFromLowerLayer:count 0
scalar SingleCell_D2D.eNB.cellularNic.rlc.tm receivedPacketFromLowerLayer:sum(packetBytes) 0
scalar SingleCell_D2D.eNB.cellularNic.rlc.tm receivedPacketFromUpperLayer:count 0
scalar SingleCell_D2D.eNB.cellularNic.rlc.tm receivedPacketFromUpperLayer:sum(packetBytes) 0
scalar SingleCell_D2D.eNB.cellularNic.rlc.um rlcCellThroughputUl:simu5g_rateavg 24130.227550866181
scalar SingleCell_D2D.eNB.cellularNic.rlc.um rlcCellThroughputDl:simu5g_rateavg 24192.672051646903
scalar SingleCell_D2D.eNB.cellularNic.rlc.um rlcPduThroughputUl:simu5g_rateavg -nan
scalar SingleCell_D2D.eNB.cellularNic.rlc.um rlcPduThroughputDl:simu5g_rateavg -nan
scalar SingleCell_D2D.eNB.cellularNic.rlc.um rlcPduDelayUl:mean -nan
scalar SingleCell_D2D.eNB.cellularNic.rlc.um rlcPduDelayDl:mean -nan
scalar SingleCell_D2D.eNB.cellularNic.rlc.um rlcThroughputUl:simu5g_rateavg -nan
scalar SingleCell_D2D.eNB.cellularNic.rlc.um rlcThroughputDl:simu5g_rateavg -nan
scalar SingleCell_D2D.eNB.cellularNic.rlc.um rlcDelayUl:mean -nan
scalar SingleCell_D2D.eNB.cellularNic.rlc.um rlcDelayDl:mean -nan
scalar SingleCell_D2D.eNB.cellularNic.rlc.um sentPacketToLowerLayer:count 880
scalar SingleCell_D2D.eNB.cellularNic.rlc.um sentPacketToLowerLayer:sum(packetBytes) 62480
scalar SingleCell_D2D.eNB.cellularNic.rlc.um sentPacketToUpperLayer:count 880
scalar SingleCell_D2D.eNB.cellularNic.rlc.um sentPacketToUpperLayer:sum(packetBytes) 60720
scalar SingleCell_D2D.eNB.cellularNic.rlc.um receivedPacketFromLowerLayer:count 880
scalar SingleCell_D2D.eNB.cellularNic.rlc.um receivedPacketFromLowerLayer:sum(packetBytes) 62480
scalar SingleCell_D2D.eNB.cellularNic.rlc.um receivedPacketFromUpperLayer:count 880
scalar SingleCell_D2D.eNB.cellularNic.rlc.um receivedPacketFromUpperLayer:sum(packetBytes) 60720
scalar SingleCell_D2D.eNB.cellularNic.rlc.am rlcPacketLossTotal:mean -nan
scalar SingleCell_D2D.eNB.cellularNic.rlc.am rlcCellThroughputUl:simu5g_rateavg -nan
scalar SingleCell_D2D.eNB.cellularNic.rlc.am rlcCellThroughputDl:simu5g_rateavg -nan
scalar SingleCell_D2D.eNB.cellularNic.rlc.am rlcPduThroughputUl:simu5g_rateavg -nan
scalar SingleCell_D2D.eNB.cellularNic.rlc.am rlcPduThroughputDl:simu5g_rateavg -nan
scalar SingleCell_D2D.eNB.cellularNic.rlc.am rlcPduDelayUl:mean -nan
scalar SingleCell_D2D.eNB.cellularNic.rlc.am rlcPduDelayDl:mean -nan
scalar SingleCell_D2D.eNB.cellularNic.rlc.am rlcThroughputUl:simu5g_rateavg -nan
scalar SingleCell_D2D.eNB.cellularNic.rlc.am rlcThroughputDl:simu5g_rateavg -nan
scalar SingleCell_D2D.eNB.cellularNic.rlc.am rlcDelayUl:mean -nan
scalar SingleCell_D2D.eNB.cellularNic.rlc.am rlcDelayDl:mean -nan
scalar SingleCell_D2D.eNB.cellularNic.rlc.am rlcPduPacketLossUl:mean -nan
scalar SingleCell_D2D.eNB.cellularNic.rlc.am rlcPduPacketLossDl:mean -nan
scalar SingleCell_D2D.eNB.cellularNic.rlc.am rlcPacketLossUl:mean -nan
scalar SingleCell_D2D.eNB.cellularNic.rlc.am rlcPacketLossDl:mean -nan
scalar SingleCell_D2D.eNB.cellularNic.rlc.am rlcCellPacketLossUl:mean -nan
scalar SingleCell_D2D.eNB.cellularNic.rlc.am rlcCellPacketLossDl:mean -nan
scalar SingleCell_D2D.eNB.cellularNic.mac avgServedBlocksUl:mean 0.1762
scalar SingleCell_D2D.eNB.cellularNic.mac avgServedBlocksDl:mean 0.17599999999999999
scalar SingleCell_D2D.eNB.cellularNic.mac harqTxAttemptsUl:mean -nan
scalar SingleCell_D2D.eNB.cellularNic.mac harqTxAttemptsDl:mean -nan
scalar SingleCell_D2D.eNB.cellularNic.mac harqErrorRate_4th_Ul:mean -nan
scalar SingleCell_D2D.eNB.cellularNic.mac harqErrorRate_4th_Dl:mean -nan
scalar SingleCell_D2D.eNB.cellularNic.mac harqErrorRate_3rd_Ul:mean -nan
scalar SingleCell_D2D.eNB.cellularNic.mac harqErrorRate_3rd_Dl:mean -nan
scalar SingleCell_D2D.eNB.cellularNic.mac harqErrorRate_2nd_Ul:mean -nan
scalar SingleCell_D2D.eNB.cellularNic.mac harqErrorRate_2nd_Dl:mean -nan
scalar SingleCell_D2D.eNB.cellularNic.mac harqErrorRate_1st_Ul:mean -nan
scalar SingleCell_D2D.eNB.cellularNic.mac harqErrorRate_1st_Dl:mean -nan
scalar SingleCell_D2D.eNB.cellularNic.mac harqErrorRateUl:mean -nan
scalar SingleCell_D2D.eNB.cellularNic.mac harqErrorRateDl:mean -nan
scalar SingleCell_D2D.eNB.cellularNic.mac macCellPacketLossUl:mean 0
scalar SingleCell_D2D.eNB.cellularNic.mac macCellPacketLossDl:mean 0
scalar SingleCell_D2D.eNB.cellularNic.mac macPacketLossUl:mean -nan
scalar SingleCell_D2D.eNB.cellularNic.mac macPacketLossDl:mean -nan
scalar SingleCell_D2D.eNB.cellularNic.mac macThroughputUl:simu5g_rateavg -nan
scalar SingleCell_D2D.eNB.cellularNic.mac macThroughputDl:simu5g_rateavg -nan
scalar SingleCell_D2D.eNB.cellularNic.mac macDelayUl:mean -nan
scalar SingleCell_D2D.eNB.cellularNic.mac macDelayDl:mean -nan
scalar SingleCell_D2D.eNB.cellularNic.mac macCellThroughputUl:simu5g_rateavg 25529.081321930829
scalar SingleCell_D2D.eNB.cellularNic.mac macCellThroughputDl:simu5g_rateavg 25595.145793771371
scalar SingleCell_D2D.eNB.cellularNic.mac sentPacketToLowerLayer:count 3522
scalar SingleCell_D2D.eNB.cellularNic.mac sentPacketToLowerLayer:sum(packetBytes) 66882
scalar SingleCell_D2D.eNB.cellularNic.mac sentPacketToUpperLayer:count 1760
scalar SingleCell_D2D.eNB.cellularNic.mac sentPacketToUpperLayer:sum(packetBytes) 63360
scalar SingleCell_D2D.eNB.cellularNic.mac receivedPacketFromLowerLayer:count 10981
scalar SingleCell_D2D.eNB.cellularNic.mac receivedPacketFromLowerLayer:sum(packetBytes) 74341
scalar SingleCell_D2D.eNB.cellularNic.mac receivedPacketFromUpperLayer:count 1760
scalar SingleCell_D2D.eNB.cellularNic.mac receivedPacketFromUpperLayer:sum(packetBytes) 123200
scalar SingleCell_D2D.eNB.cellularNic.mac macBufferOverFlowD2D:mean -nan
scalar SingleCell_D2D.eNB.cellularNic.mac macBufferOverFlowUl:mean -nan
scalar SingleCell_D2D.eNB.cellularNic.mac macBufferOverFlowDl:mean -nan
scalar SingleCell_D2D.eNB.cellularNic.channelModel[0] measuredSinrUl:mean -nan
scalar SingleCell_D2D.eNB.cellularNic.channelModel[0] measuredSinrDl:mean -nan
scalar SingleCell_D2D.eNB.cellularNic.channelModel[0] rcvdSinrD2D:mean -nan
scalar SingleCell_D2D.eNB.cellularNic.channelModel[0] rcvdSinrUl:mean -nan
scalar SingleCell_D2D.eNB.cellularNic.channelModel[0] rcvdSinrDl:mean -nan
scalar SingleCell_D2D.eNB.cellularNic packetDropInterfaceDown:count 0
scalar SingleCell_D2D.eNB.cellularNic packetDropInterfaceDown:sum(packetBytes) 0
scalar SingleCell_D2D.eNB.cellularNic packetDropNoCarrier:count 0
scalar SingleCell_D2D.eNB.cellularNic packetDropNoCarrier:sum(packetBytes) 0
scalar SingleCell_D2D.eNB.pppIf.queue queueLength:last 0
scalar SingleCell_D2D.eNB.pppIf.queue queueLength:max 0
scalar SingleCell_D2D.eNB.pppIf.queue queueLength:timeavg 0
scalar SingleCell_D2D.eNB.pppIf.queue queueBitLength:last 0
scalar SingleCell_D2D.eNB.pppIf.queue queueBitLength:max 0
scalar SingleCell_D2D.eNB.pppIf.queue queueBitLength:timeavg 0
scalar SingleCell_D2D.eNB.pppIf.queue outgoingPackets:count 0
scalar SingleCell_D2D.eNB.pppIf.queue outgoingPacketLengths:sum 0
scalar SingleCell_D2D.eNB.pppIf.queue incomingPackets:count 0
scalar SingleCell_D2D.eNB.pppIf.queue incomingPacketLengths:sum 0
scalar SingleCell_D2D.eNB.pppIf.queue droppedPacketsQueueOverflow:count 0
scalar SingleCell_D2D.eNB.pppIf.queue droppedPacketLengthsQueueOverflow:sum 0
scalar SingleCell_D2D.eNB.pppIf.ppp transmissionState:timeavg 0
scalar SingleCell_D2D.eNB.pppIf.ppp rxPkOk:count 0
scalar SingleCell_D2D.eNB.pppIf.ppp rxPkOk:sum(packetBytes) 0
scalar SingleCell_D2D.eNB.pppIf.ppp txPk:count 0
scalar SingleCell_D2D.eNB.pppIf.ppp txPk:sum(packetBytes) 0
scalar SingleCell_D2D.eNB.pppIf.ppp rcvdPkFromHl:count 0
scalar SingleCell_D2D.eNB.pppIf.ppp rcvdPkFromHl:sum(packetBytes) 0
scalar SingleCell_D2D.eNB.pppIf.ppp passedUpPk:count 0
scalar SingleCell_D2D.eNB.pppIf.ppp passedUpPk:sum(packetBytes) 0
scalar SingleCell_D2D.eNB.pppIf.ppp packetDropIncorrectlyReceived:count 0
scalar SingleCell_D2D.eNB.pppIf.ppp packetDropIncorrectlyReceived:sum(packetBytes) 0
scalar SingleCell_D2D.eNB.pppIf.ppp packetDropInterfaceDown:count 0
scalar SingleCell_D2D.eNB.pppIf.ppp packetDropInterfaceDown:sum(packetBytes) 0
scalar SingleCell_D2D.eNB.pppIf packetDropInterfaceDown:count 0
scalar SingleCell_D2D.eNB.pppIf packetDropInterfaceDown:sum(packetBytes) 0
scalar SingleCell_D2D.eNB.pppIf packetDropNoCarrier:count 0
scalar SingleCell_D2D.eNB.pppIf packetDropNoCarrier:sum(packetBytes) 0
scalar SingleCell_D2D.eNB.pppMEHostIf.queue queueLength:last 0
scalar SingleCell_D2D.eNB.pppMEHostIf.queue queueLength:max 0
scalar SingleCell_D2D.eNB.pppMEHostIf.queue queueLength:timeavg 0
scalar SingleCell_D2D.eNB.pppMEHostIf.queue queueBitLength:last 0
scalar SingleCell_D2D.eNB.pppMEHostIf.queue queueBitLength:max 0
scalar SingleCell_D2D.eNB.pppMEHostIf.queue queueBitLength:timeavg 0
scalar SingleCell_D2D.eNB.pppMEHostIf.queue outgoingPackets:count 0
scalar SingleCell_D2D.eNB.pppMEHostIf.queue outgoingPacketLengths:sum 0
scalar SingleCell_D2D.eNB.pppMEHostIf.queue incomingPackets:count 0
scalar SingleCell_D2D.eNB.pppMEHostIf.queue incomingPacketLengths:sum 0
scalar SingleCell_D2D.eNB.pppMEHostIf.queue droppedPacketsQueueOverflow:count 0
scalar SingleCell_D2D.eNB.pppMEHostIf.queue droppedPacketLengthsQueueOverflow:sum 0
scalar SingleCell_D2D.eNB.pppMEHostIf.ppp transmissionState:timeavg 0
scalar SingleCell_D2D.eNB.pppMEHostIf.ppp rxPkOk:count 0
scalar SingleCell_D2D.eNB.pppMEHostIf.ppp rxPkOk:sum(packetBytes) 0
scalar SingleCell_D2D.eNB.pppMEHostIf.ppp txPk:count 0
scalar SingleCell_D2D.eNB.pppMEHostIf.ppp txPk:sum(packetBytes) 0
scalar SingleCell_D2D.eNB.pppMEHostIf.ppp rcvdPkFromHl:count 0
scalar SingleCell_D2D.eNB.pppMEHostIf.ppp rcvdPkFromHl:sum(packetBytes) 0
scalar SingleCell_D2D.eNB.pppMEHostIf.ppp passedUpPk:count 0
scalar SingleCell_D2D.eNB.pppMEHostIf.ppp passedUpPk:sum(packetBytes) 0
scalar SingleCell_D2D.eNB.pppMEHostIf.ppp packetDropIncorrectlyReceived:count 0
scalar SingleCell_D2D.eNB.pppMEHostIf.ppp packetDropIncorrectlyReceived:sum(packetBytes) 0
scalar SingleCell_D2D.eNB.pppMEHostIf.ppp packetDropInterfaceDown:count 0
scalar SingleCell_D2D.eNB.pppMEHostIf.ppp packetDropInterfaceDown:sum(packetBytes) 0
scalar SingleCell_D2D.eNB.pppMEHostIf packetDropInterfaceDown:count 0
scalar SingleCell_D2D.eNB.pppMEHostIf packetDropInterfaceDown:sum(packetBytes) 0
scalar SingleCell_D2D.eNB.pppMEHostIf packetDropNoCarrier:count 0
scalar SingleCell_D2D.eNB.pppMEHostIf packetDropNoCarrier:sum(packetBytes) 0
scalar SingleCell_D2D.eNB.ipv4.ip packetDropAddressResolutionFailed:count 0
scalar SingleCell_D2D.eNB.ipv4.ip packetDropAddressResolutionFailed:sum(packetBytes) 0
scalar SingleCell_D2D.eNB.ipv4.ip packetDropHopLimitReached:count 0
scalar SingleCell_D2D.eNB.ipv4.ip packetDropHopLimitReached:sum(packetBytes) 0
scalar SingleCell_D2D.eNB.ipv4.ip packetDropForwardingDisabled:count 0
scalar SingleCell_D2D.eNB.ipv4.ip packetDropForwardingDisabled:sum(packetBytes) 0
scalar SingleCell_D2D.eNB.ipv4.ip packetDropNoInterfaceFound:count 0
scalar SingleCell_D2D.eNB.ipv4.ip packetDropNoInterfaceFound:sum(packetBytes) 0
scalar SingleCell_D2D.eNB.ipv4.ip packetDropNoRouteFound:count 0
scalar SingleCell_D2D.eNB.ipv4.ip packetDropNoRouteFound:sum(packetBytes) 0
scalar SingleCell_D2D.eNB.ipv4.ip packetDropUndefined:count 0
scalar SingleCell_D2D.eNB.ipv4.ip packetDropUndefined:sum(packetBytes) 0
scalar SingleCell_D2D.eNB.ipv4.arp arpResolutionFailed:count 0
scalar SingleCell_D2D.eNB.ipv4.arp arpResolutionCompleted:count 0
scalar SingleCell_D2D.eNB.ipv4.arp arpResolutionInitiated:count 0
scalar SingleCell_D2D.eNB.ipv4.arp arpReplySent:count 0
scalar SingleCell_D2D.eNB.ipv4.arp arpReplySent:sum(packetBytes) 0
scalar SingleCell_D2D.eNB.ipv4.arp arpRequestSent:count 0
scalar SingleCell_D2D.eNB.ipv4.arp arpRequestSent:sum(packetBytes) 0
scalar SingleCell_D2D.eNB.udp packetReceived:count 0
scalar SingleCell_D2D.eNB.udp packetReceived:sum(packetBytes) 0
scalar SingleCell_D2D.eNB.udp packetSent:count 0
scalar SingleCell_D2D.eNB.udp packetSent:sum(packetBytes) 0
scalar SingleCell_D2D.eNB.udp passedUpPk:count 0
scalar SingleCell_D2D.eNB.udp droppedPkWrongPort:count 0
scalar SingleCell_D2D.eNB.udp droppedPkBadChecksum:count 0
scalar SingleCell_D2D.ueD2DTx[0].lo[0].lo rcvdPkFromHl:count 0
scalar SingleCell_D2D.ueD2DTx[0].lo[0].lo rcvdPkFromHl:sum(packetBytes) 0
scalar SingleCell_D2D.ueD2DTx[0].lo[0].lo passedUpPk:count 0
scalar SingleCell_D2D.ueD2DTx[0].lo[0].lo passedUpPk:sum(packetBytes) 0
scalar SingleCell_D2D.ueD2DTx[0].lo[0] packetDropInterfaceDown:count 0
scalar SingleCell_D2D.ueD2DTx[0].lo[0] packetDropInterfaceDown:sum(packetBytes) 0
scalar SingleCell_D2D.ueD2DTx[0].lo[0] packetDropNoCarrier:count 0
scalar SingleCell_D2D.ueD2DTx[0].lo[0] packetDropNoCarrier:sum(packetBytes) 0
scalar SingleCell_D2D.ueD2DTx[0].cellularNic.pdcp sentPacketToLowerLayer:count 195
scalar SingleCell_D2D.ueD2DTx[0].cellularNic.pdcp sentPacketToLowerLayer:sum(packetBytes) 13455
scalar SingleCell_D2D.ueD2DTx[0].cellularNic.pdcp sentPacketToUpperLayer:count 0
scalar SingleCell_D2D.ueD2DTx[0].cellularNic.pdcp sentPacketToUpperLayer:sum(packetBytes) 0
scalar SingleCell_D2D.ueD2DTx[0].cellularNic.pdcp receivedPacketFromLowerLayer:count 0
scalar SingleCell_D2D.ueD2DTx[0].cellularNic.pdcp receivedPacketFromLowerLayer:sum(packetBytes) 0
scalar SingleCell_D2D.ueD2DTx[0].cellularNic.pdcp receivedPacketFromUpperLayer:count 195
scalar SingleCell_D2D.ueD2DTx[0].cellularNic.pdcp receivedPacketFromUpperLayer:sum(packetBytes) 13260
scalar SingleCell_D2D.ueD2DTx[0].cellularNic.rlc.tm rlcPacketLossUl:mean -nan
scalar SingleCell_D2D.ueD2DTx[0].cellularNic.rlc.tm rlcPacketLossUl:sum 0
scalar SingleCell_D2D.ueD2DTx[0].cellularNic.rlc.tm rlcPacketLossDl:mean -nan
scalar SingleCell_D2D.ueD2DTx[0].cellularNic.rlc.tm rlcPacketLossDl:sum 0
scalar SingleCell_D2D.ueD2DTx[0].cellularNic.rlc.tm sentPacketToLowerLayer:count 0
scalar SingleCell_D2D.ueD2DTx[0].cellularNic.rlc.tm sentPacketToLowerLayer:sum(packetBytes) 0
scalar SingleCell_D2D.ueD2DTx[0].cellularNic.rlc.tm sentPacketToUpperLayer:count 0
scalar SingleCell_D2D.ueD2DTx[0].cellularNic.rlc.tm sentPacketToUpperLayer:sum(packetBytes) 0
scalar SingleCell_D2D.ueD2DTx[0].cellularNic.rlc.tm receivedPacketFromLowerLayer:count 0
scalar SingleCell_D2D.ueD2DTx[0].cellularNic.rlc.tm receivedPacketFromLowerLayer:sum(packetBytes) 0
scalar SingleCell_D2D.ueD2DTx[0].cellularNic.rlc.tm receivedPacketFromUpperLayer:count 0
scalar SingleCell_D2D.ueD2DTx[0].cellularNic.rlc.tm receivedPacketFromUpperLayer:sum(packetBytes) 0
scalar SingleCell_D2D.ueD2DTx[0].cellularNic.rlc.um rlcCellThroughputUl:simu5g_rateavg -nan
scalar SingleCell_D2D.ueD2DTx[0].cellularNic.rlc.um rlcCellThroughputDl:simu5g_rateavg -nan
scalar SingleCell_D2D.ueD2DTx[0].cellularNic.rlc.um rlcPduThroughputUl:simu5g_rateavg 0
scalar SingleCell_D2D.ueD2DTx[0].cellularNic.rlc.um rlcPduThroughputDl:simu5g_rateavg -nan
scalar SingleCell_D2D.ueD2DTx[0].cellularNic.rlc.um rlcPduDelayUl:mean 0.0040000000000000027
scalar SingleCell_D2D.ueD2DTx[0].cellularNic.rlc.um rlcPduDelayDl:mean -nan
scalar SingleCell_D2D.ueD2DTx[0].cellularNic.rlc.um rlcThroughputUl:simu5g_rateavg 2080.9670199696438
scalar SingleCell_D2D.ueD2DTx[0].cellularNic.rlc.um rlcThroughputDl:simu5g_rateavg -nan
scalar SingleCell_D2D.ueD2DTx[0].cellularNic.rlc.um rlcDelayUl:mean 0.0086767102640768808
scalar SingleCell_D2D.ueD2DTx[0].cellularNic.rlc.um rlcDelayDl:mean -nan
scalar SingleCell_D2D.ueD2DTx[0].cellularNic.rlc.um sentPacketToLowerLayer:count 195
scalar SingleCell_D2D.ueD2DTx[0].cellularNic.rlc.um sentPacketToLowerLayer:sum(packetBytes) 13845
scalar SingleCell_D2D.ueD2DTx[0].cellularNic.rlc.um sentPacketToUpperLayer:count 0
scalar SingleCell_D2D.ueD2DTx[0].cellularNic.rlc.um sentPacketToUpperLayer:sum(packetBytes) 0
scalar SingleCell_D2D.ueD2DTx[0].cellularNic.rlc.um receivedPacketFromLowerLayer:count 0
scalar SingleCell_D2D.ueD2DTx[0].cellularNic.rlc.um receivedPacketFromLowerLayer:sum(packetBytes) 0
scalar SingleCell_D2D.ueD2DTx[0].cellularNic.rlc.um receivedPacketFromUpperLayer:count 195
scalar SingleCell_D2D.ueD2DTx[0].cellularNic.rlc.um receivedPacketFromUpperLayer:sum(packetBytes) 13455
scalar SingleCell_D2D.ueD2DTx[0].cellularNic.rlc.am rlcPacketLossTotal:mean -nan
scalar SingleCell_D2D.ueD2DTx[0].cellularNic.rlc.am rlcCellThroughputUl:simu5g_rateavg -nan
scalar SingleCell_D2D.ueD2DTx[0].cellularNic.rlc.am rlcCellThroughputDl:simu5g_rateavg -nan
scalar SingleCell_D2D.ueD2DTx[0].cellularNic.rlc.am rlcPduThroughputUl:simu5g_rateavg -nan
scalar SingleCell_D2D.ueD2DTx[0].cellularNic.rlc.am rlcPduThroughputDl:simu5g_rateavg -nan
scalar SingleCell_D2D.ueD2DTx[0].cellularNic.rlc.am rlcPduDelayUl:mean -nan
scalar SingleCell_D2D.ueD2DTx[0].cellularNic.rlc.am rlcPduDelayDl:mean -nan
scalar SingleCell_D2D.ueD2DTx[0].cellularNic.rlc.am rlcThroughputUl:simu5g_rateavg -nan
scalar SingleCell_D2D.ueD2DTx[0].cellularNic.rlc.am rlcThroughputDl:simu5g_rateavg -nan
scalar SingleCell_D2D.ueD2DTx[0].cellularNic.rlc.am rlcDelayUl:mean -nan
scalar SingleCell_D2D.ueD2DTx[0].cellularNic.rlc.am rlcDelayDl:mean -nan
scalar SingleCell_D2D.ueD2DTx[0].cellularNic.rlc.am rlcPduPacketLossUl:mean -nan
scalar SingleCell_D2D.ueD2DTx[0].cellularNic.rlc.am rlcPduPacketLossDl:mean -nan
scalar SingleCell_D2D.ueD2DTx[0].cellularNic.rlc.am rlcPacketLossUl:mean -nan
scalar SingleCell_D2D.ueD2DTx[0].cellularNic.rlc.am rlcPacketLossDl:mean -nan
scalar SingleCell_D2D.ueD2DTx[0].cellularNic.rlc.am rlcCellPacketLossUl:mean -nan
scalar SingleCell_D2D.ueD2DTx[0].cellularNic.rlc.am rlcCellPacketLossDl:mean -nan
scalar SingleCell_D2D.ueD2DTx[0].cellularNic.mac harqTxAttemptsUl:mean 1
scalar SingleCell_D2D.ueD2DTx[0].cellularNic.mac harqTxAttemptsDl:mean -nan
scalar SingleCell_D2D.ueD2DTx[0].cellularNic.mac harqErrorRate_4th_Ul:mean -nan
scalar SingleCell_D2D.ueD2DTx[0].cellularNic.mac harqErrorRate_4th_Dl:mean -nan
scalar SingleCell_D2D.ueD2DTx[0].cellularNic.mac harqErrorRate_3rd_Ul:mean -nan
scalar SingleCell_D2D.ueD2DTx[0].cellularNic.mac harqErrorRate_3rd_Dl:mean -nan
scalar SingleCell_D2D.ueD2DTx[0].cellularNic.mac harqErrorRate_2nd_Ul:mean -nan
scalar SingleCell_D2D.ueD2DTx[0].cellularNic.mac harqErrorRate_2nd_Dl:mean -nan
scalar SingleCell_D2D.ueD2DTx[0].cellularNic.mac harqErrorRate_1st_Ul:mean 0
scalar SingleCell_D2D.ueD2DTx[0].cellularNic.mac harqErrorRate_1st_Dl:mean -nan
scalar SingleCell_D2D.ueD2DTx[0].cellularNic.mac harqErrorRateUl:mean 0
scalar SingleCell_D2D.ueD2DTx[0].cellularNic.mac harqErrorRateDl:mean -nan
scalar SingleCell_D2D.ueD2DTx[0].cellularNic.mac macCellPacketLossUl:mean -nan
scalar SingleCell_D2D.ueD2DTx[0].cellularNic.mac macCellPacketLossDl:mean -nan
scalar SingleCell_D2D.ueD2DTx[0].cellularNic.mac macPacketLossUl:mean 0
scalar SingleCell_D2D.ueD2DTx[0].cellularNic.mac macPacketLossDl:mean -nan
scalar SingleCell_D2D.ueD2DTx[0].cellularNic.mac macThroughputUl:simu5g_rateavg 2201.6027892432453
scalar SingleCell_D2D.ueD2DTx[0].cellularNic.mac macThroughputDl:simu5g_rateavg -nan
scalar SingleCell_D2D.ueD2DTx[0].cellularNic.mac macDelayUl:mean 0.0040000000000000027
scalar SingleCell_D2D.ueD2DTx[0].cellularNic.mac macDelayDl:mean -nan
scalar SingleCell_D2D.ueD2DTx[0].cellularNic.mac macCellThroughputUl:simu5g_rateavg -nan
scalar SingleCell_D2D.ueD2DTx[0].cellularNic.mac macCellThroughputDl:simu5g_rateavg -nan
scalar SingleCell_D2D.ueD2DTx[0].cellularNic.mac sentPacketToLowerLayer:count 390
scalar SingleCell_D2D.ueD2DTx[0].cellularNic.mac sentPacketToLowerLayer:sum(packetBytes) 14430
scalar SingleCell_D2D.ueD2DTx[0].cellularNic.mac sentPacketToUpperLayer:count 195
scalar SingleCell_D2D.ueD2DTx[0].cellularNic.mac sentPacketToUpperLayer:sum(packetBytes) 195
scalar SingleCell_D2D.ueD2DTx[0].cellularNic.mac receivedPacketFromLowerLayer:count 585
scalar SingleCell_D2D.ueD2DTx[0].cellularNic.mac receivedPacketFromLowerLayer:sum(packetBytes) 585
scalar SingleCell_D2D.ueD2DTx[0].cellularNic.mac receivedPacketFromUpperLayer:count 390
scalar SingleCell_D2D.ueD2DTx[0].cellularNic.mac receivedPacketFromUpperLayer:sum(packetBytes) 27300
scalar SingleCell_D2D.ueD2DTx[0].cellularNic.mac macBufferOverFlowD2D:mean -nan
scalar SingleCell_D2D.ueD2DTx[0].cellularNic.mac macBufferOverFlowUl:mean -nan
scalar SingleCell_D2D.ueD2DTx[0].cellularNic.mac macBufferOverFlowDl:mean -nan
scalar SingleCell_D2D.ueD2DTx[0].cellularNic.phy distance:mean -nan
scalar SingleCell_D2D.ueD2DTx[0].cellularNic.phy averageCqiUl:mean 14
scalar SingleCell_D2D.ueD2DTx[0].cellularNic.phy averageCqiUl:count 195
scalar SingleCell_D2D.ueD2DTx[0].cellularNic.phy averageCqiDl:mean -nan
scalar SingleCell_D2D.ueD2DTx[0].cellularNic.phy averageCqiDl:count 0
scalar SingleCell_D2D.ueD2DTx[0].cellularNic.channelModel[0] measuredSinrUl:mean 43.194184684027476
scalar SingleCell_D2D.ueD2DTx[0].cellularNic.channelModel[0] measuredSinrDl:mean 64.505094513360774
scalar SingleCell_D2D.ueD2DTx[0].cellularNic.channelModel[0] rcvdSinrD2D:mean -nan
scalar SingleCell_D2D.ueD2DTx[0].cellularNic.channelModel[0] rcvdSinrUl:mean 49.503247036090087
scalar SingleCell_D2D.ueD2DTx[0].cellularNic.channelModel[0] rcvdSinrDl:mean -nan
scalar SingleCell_D2D.ueD2DTx[0].cellularNic packetDropInterfaceDown:count 0
scalar SingleCell_D2D.ueD2DTx[0].cellularNic packetDropInterfaceDown:sum(packetBytes) 0
scalar SingleCell_D2D.ueD2DTx[0].cellularNic packetDropNoCarrier:count 0
scalar SingleCell_D2D.ueD2DTx[0].cellularNic packetDropNoCarrier:sum(packetBytes) 0
scalar SingleCell_D2D.ueD2DTx[0].encap pauseSent:count 0
scalar SingleCell_D2D.ueD2DTx[0].encap pauseSent:sum 0
scalar SingleCell_D2D.ueD2DTx[0].encap decapPk:count 0
scalar SingleCell_D2D.ueD2DTx[0].encap decapPk:sum(packetBytes) 0
scalar SingleCell_D2D.ueD2DTx[0].encap encapPk:count 0
scalar SingleCell_D2D.ueD2DTx[0].encap encapPk:sum(packetBytes) 0
scalar SingleCell_D2D.ueD2DTx[0].ipv4.ip packetDropAddressResolutionFailed:count 0
scalar SingleCell_D2D.ueD2DTx[0].ipv4.ip packetDropAddressResolutionFailed:sum(packetBytes) 0
scalar SingleCell_D2D.ueD2DTx[0].ipv4.ip packetDropHopLimitReached:count 0
scalar SingleCell_D2D.ueD2DTx[0].ipv4.ip packetDropHopLimitReached:sum(packetBytes) 0
scalar SingleCell_D2D.ueD2DTx[0].ipv4.ip packetDropForwardingDisabled:count 0
scalar SingleCell_D2D.ueD2DTx[0].ipv4.ip packetDropForwardingDisabled:sum(packetBytes) 0
scalar SingleCell_D2D.ueD2DTx[0].ipv4.ip packetDropNoInterfaceFound:count 0
scalar SingleCell_D2D.ueD2DTx[0].ipv4.ip packetDropNoInterfaceFound:sum(packetBytes) 0
scalar SingleCell_D2D.ueD2DTx[0].ipv4.ip packetDropNoRouteFound:count 0
scalar SingleCell_D2D.ueD2DTx[0].ipv4.ip packetDropNoRouteFound:sum(packetBytes) 0
scalar SingleCell_D2D.ueD2DTx[0].ipv4.ip packetDropUndefined:count 0
scalar SingleCell_D2D.ueD2DTx[0].ipv4.ip packetDropUndefined:sum(packetBytes) 0
scalar SingleCell_D2D.ueD2DTx[0].ipv4.arp arpResolutionFailed:count 0
scalar SingleCell_D2D.ueD2DTx[0].ipv4.arp arpResolutionCompleted:count 0
scalar SingleCell_D2D.ueD2DTx[0].ipv4.arp arpResolutionInitiated:count 0
scalar SingleCell_D2D.ueD2DTx[0].ipv4.arp arpReplySent:count 0
scalar SingleCell_D2D.ueD2DTx[0].ipv4.arp arpReplySent:sum(packetBytes) 0
scalar SingleCell_D2D.ueD2DTx[0].ipv4.arp arpRequestSent:count 0
scalar SingleCell_D2D.ueD2DTx[0].ipv4.arp arpRequestSent:sum(packetBytes) 0
scalar SingleCell_D2D.ueD2DTx[0].udp packetReceived:count 0
scalar SingleCell_D2D.ueD2DTx[0].udp packetReceived:sum(packetBytes) 0
scalar SingleCell_D2D.ueD2DTx[0].udp packetSent:count 195
scalar SingleCell_D2D.ueD2DTx[0].udp packetSent:sum(packetBytes) 9360
scalar SingleCell_D2D.ueD2DTx[0].udp passedUpPk:count 0
scalar SingleCell_D2D.ueD2DTx[0].udp droppedPkWrongPort:count 0
scalar SingleCell_D2D.ueD2DTx[0].udp droppedPkBadChecksum:count 0
scalar SingleCell_D2D.ueD2DTx[0].app[0] voipGeneratedThroughput:simu5g_rateavg 1221.8035869313192
scalar SingleCell_D2D.ueD2DTx[1].lo[0].lo rcvdPkFromHl:count 0
scalar SingleCell_D2D.ueD2DTx[1].lo[0].lo rcvdPkFromHl:sum(packetBytes) 0
scalar SingleCell_D2D.ueD2DTx[1].lo[0].lo passedUpPk:count 0
scalar SingleCell_D2D.ueD2DTx[1].lo[0].lo passedUpPk:sum(packetBytes) 0
scalar SingleCell_D2D.ueD2DTx[1].lo[0] packetDropInterfaceDown:count 0
scalar SingleCell_D2D.ueD2DTx[1].lo[0] packetDropInterfaceDown:sum(packetBytes) 0
scalar SingleCell_D2D.ueD2DTx[1].lo[0] packetDropNoCarrier:count 0
scalar SingleCell_D2D.ueD2DTx[1].lo[0] packetDropNoCarrier:sum(packetBytes) 0
scalar SingleCell_D2D.ueD2DTx[1].cellularNic.pdcp sentPacketToLowerLayer:count 167
scalar SingleCell_D2D.ueD2DTx[1].cellularNic.pdcp sentPacketToLowerLayer:sum(packetBytes) 11523
scalar SingleCell_D2D.ueD2DTx[1].cellularNic.pdcp sentPacketToUpperLayer:count 0
scalar SingleCell_D2D.ueD2DTx[1].cellularNic.pdcp sentPacketToUpperLayer:sum(packetBytes) 0
scalar SingleCell_D2D.ueD2DTx[1].cellularNic.pdcp receivedPacketFromLowerLayer:count 0
scalar SingleCell_D2D.ueD2DTx[1].cellularNic.pdcp receivedPacketFromLowerLayer:sum(packetBytes) 0
scalar SingleCell_D2D.ueD2DTx[1].cellularNic.pdcp receivedPacketFromUpperLayer:count 167
scalar SingleCell_D2D.ueD2DTx[1].cellularNic.pdcp receivedPacketFromUpperLayer:sum(packetBytes) 11356
scalar SingleCell_D2D.ueD2DTx[1].cellularNic.rlc.tm rlcPacketLossUl:mean -nan
scalar SingleCell_D2D.ueD2DTx[1].cellularNic.rlc.tm rlcPacketLossUl:sum 0
scalar SingleCell_D2D.ueD2DTx[1].cellularNic.rlc.tm rlcPacketLossDl:mean -nan
scalar SingleCell_D2D.ueD2DTx[1].cellularNic.rlc.tm rlcPacketLossDl:sum 0
scalar SingleCell_D2D.ueD2DTx[1].cellularNic.rlc.tm sentPacketToLowerLayer:count 0
scalar SingleCell_D2D.ueD2DTx[1].cellularNic.rlc.tm sentPacketToLowerLayer:sum(packetBytes) 0
scalar SingleCell_D2D.ueD2DTx[1].cellularNic.rlc.tm sentPacketToUpperLayer:count 0
scalar SingleCell_D2D.ueD2DTx[1].cellularNic.rlc.tm sentPacketToUpperLayer:sum(packetBytes) 0
scalar SingleCell_D2D.ueD2DTx[1].cellularNic.rlc.tm receivedPacketFromLowerLayer:count 0
scalar SingleCell_D2D.ueD2DTx[1].cellularNic.rlc.tm receivedPacketFromLowerLayer:sum(packetBytes) 0
scalar SingleCell_D2D.ueD2DTx[1].cellularNic.rlc.tm receivedPacketFromUpperLayer:count 0
scalar SingleCell_D2D.ueD2DTx[1].cellularNic.rlc.tm receivedPacketFromUpperLayer:sum(packetBytes) 0
scalar SingleCell_D2D.ueD2DTx[1].cellularNic.rlc.um rlcCellThroughputUl:simu5g_rateavg -nan
scalar SingleCell_D2D.ueD2DTx[1].cellularNic.rlc.um rlcCellThroughputDl:simu5g_rateavg -nan
scalar SingleCell_D2D.ueD2DTx[1].cellularNic.rlc.um rlcPduThroughputUl:simu5g_rateavg 0
scalar SingleCell_D2D.ueD2DTx[1].cellularNic.rlc.um rlcPduThroughputDl:simu5g_rateavg -nan
scalar SingleCell_D2D.ueD2DTx[1].cellularNic.rlc.um rlcPduDelayUl:mean 0.0040000000000000027
scalar SingleCell_D2D.ueD2DTx[1].cellularNic.rlc.um rlcPduDelayDl:mean -nan
scalar SingleCell_D2D.ueD2DTx[1].cellularNic.rlc.um rlcThroughputUl:simu5g_rateavg 2668.5910042111577
scalar SingleCell_D2D.ueD2DTx[1].cellularNic.rlc.um rlcThroughputDl:simu5g_rateavg -nan
scalar SingleCell_D2D.ueD2DTx[1].cellularNic.rlc.um rlcDelayUl:mean 0.0082061074097425184
scalar SingleCell_D2D.ueD2DTx[1].cellularNic.rlc.um rlcDelayDl:mean -nan
scalar SingleCell_D2D.ueD2DTx[1].cellularNic.rlc.um sentPacketToLowerLayer:count 167
scalar SingleCell_D2D.ueD2DTx[1].cellularNic.rlc.um sentPacketToLowerLayer:sum(packetBytes) 11857
scalar SingleCell_D2D.ueD2DTx[1].cellularNic.rlc.um sentPacketToUpperLayer:count 0
scalar SingleCell_D2D.ueD2DTx[1].cellularNic.rlc.um sentPacketToUpperLayer:sum(packetBytes) 0
scalar SingleCell_D2D.ueD2DTx[1].cellularNic.rlc.um receivedPacketFromLowerLayer:count 0
scalar SingleCell_D2D.ueD2DTx[1].cellularNic.rlc.um receivedPacketFromLowerLayer:sum(packetBytes) 0
scalar SingleCell_D2D.ueD2DTx[1].cellularNic.rlc.um receivedPacketFromUpperLayer:count 167
scalar SingleCell_D2D.ueD2DTx[1].cellularNic.rlc.um receivedPacketFromUpperLayer:sum(packetBytes) 11523
scalar SingleCell_D2D.ueD2DTx[1].cellularNic.rlc.am rlcPacketLossTotal:mean -nan
scalar SingleCell_D2D.ueD2DTx[1].cellularNic.rlc.am rlcCellThroughputUl:simu5g_rateavg -nan
scalar SingleCell_D2D.ueD2DTx[1].cellularNic.rlc.am rlcCellThroughputDl:simu5g_rateavg -nan
scalar SingleCell_D2D.ueD2DTx[1].cellularNic.rlc.am rlcPduThroughputUl:simu5g_rateavg -nan
scalar SingleCell_D2D.ueD2DTx[1].cellularNic.rlc.am rlcPduThroughputDl:simu5g_rateavg -nan
scalar SingleCell_D2D.ueD2DTx[1].cellularNic.rlc.am rlcPduDelayUl:mean -nan
scalar SingleCell_D2D.ueD2DTx[1].cellularNic.rlc.am rlcPduDelayDl:mean -nan
scalar SingleCell_D2D.ueD2DTx[1].cellularNic.rlc.am rlcThroughputUl:simu5g_rateavg -nan
scalar SingleCell_D2D.ueD2DTx[1].cellularNic.rlc.am rlcThroughputDl:simu5g_rateavg -nan
scalar SingleCell_D2D.ueD2DTx[1].cellularNic.rlc.am rlcDelayUl:mean -nan
scalar SingleCell_D2D.ueD2DTx[1].cellularNic.rlc.am rlcDelayDl:mean -nan
scalar SingleCell_D2D.ueD2DTx[1].cellularNic.rlc.am rlcPduPacketLossUl:mean -nan
scalar SingleCell_D2D.ueD2DTx[1].cellularNic.rlc.am rlcPduPacketLossDl:mean -nan
scalar SingleCell_D2D.ueD2DTx[1].cellularNic.rlc.am rlcPacketLossUl:mean -nan
scalar SingleCell_D2D.ueD2DTx[1].cellularNic.rlc.am rlcPacketLossDl:mean -nan
scalar SingleCell_D2D.ueD2DTx[1].cellularNic.rlc.am rlcCellPacketLossUl:mean -nan
scalar SingleCell_D2D.ueD2DTx[1].cellularNic.rlc.am rlcCellPacketLossDl:mean -nan
scalar SingleCell_D2D.ueD2DTx[1].cellularNic.mac harqTxAttemptsUl:mean 1
scalar SingleCell_D2D.ueD2DTx[1].cellularNic.mac harqTxAttemptsDl:mean -nan
scalar SingleCell_D2D.ueD2DTx[1].cellularNic.mac harqErrorRate_4th_Ul:mean -nan
scalar SingleCell_D2D.ueD2DTx[1].cellularNic.mac harqErrorRate_4th_Dl:mean -nan
scalar SingleCell_D2D.ueD2DTx[1].cellularNic.mac harqErrorRate_3rd_Ul:mean -nan
scalar SingleCell_D2D.ueD2DTx[1].cellularNic.mac harqErrorRate_3rd_Dl:mean -nan
scalar SingleCell_D2D.ueD2DTx[1].cellularNic.mac harqErrorRate_2nd_Ul:mean -nan
scalar SingleCell_D2D.ueD2DTx[1].cellularNic.mac harqErrorRate_2nd_Dl:mean -nan
scalar SingleCell_D2D.ueD2DTx[1].cellularNic.mac harqErrorRate_1st_Ul:mean 0
scalar SingleCell_D2D.ueD2DTx[1].cellularNic.mac harqErrorRate_1st_Dl:mean -nan
scalar SingleCell_D2D.ueD2DTx[1].cellularNic.mac harqErrorRateUl:mean 0
scalar SingleCell_D2D.ueD2DTx[1].cellularNic.mac harqErrorRateDl:mean -nan
scalar SingleCell_D2D.ueD2DTx[1].cellularNic.mac macCellPacketLossUl:mean -nan
scalar SingleCell_D2D.ueD2DTx[1].cellularNic.mac macCellPacketLossDl:mean -nan
scalar SingleCell_D2D.ueD2DTx[1].cellularNic.mac macPacketLossUl:mean 0
scalar SingleCell_D2D.ueD2DTx[1].cellularNic.mac macPacketLossDl:mean -nan
scalar SingleCell_D2D.ueD2DTx[1].cellularNic.mac macThroughputUl:simu5g_rateavg 2823.2919319915154
scalar SingleCell_D2D.ueD2DTx[1].cellularNic.mac macThroughputDl:simu5g_rateavg -nan
scalar SingleCell_D2D.ueD2DTx[1].cellularNic.mac macDelayUl:mean 0.0040000000000000027
scalar SingleCell_D2D.ueD2DTx[1].cellularNic.mac macDelayDl:mean -nan
scalar SingleCell_D2D.ueD2DTx[1].cellularNic.mac macCellThroughputUl:simu5g_rateavg -nan
scalar SingleCell_D2D.ueD2DTx[1].cellularNic.mac macCellThroughputDl:simu5g_rateavg -nan
scalar SingleCell_D2D.ueD2DTx[1].cellularNic.mac sentPacketToLowerLayer:count 334
scalar SingleCell_D2D.ueD2DTx[1].cellularNic.mac sentPacketToLowerLayer:sum(packetBytes) 12358
scalar SingleCell_D2D.ueD2DTx[1].cellularNic.mac sentPacketToUpperLayer:count 167
scalar SingleCell_D2D.ueD2DTx[1].cellularNic.mac sentPacketToUpperLayer:sum(packetBytes) 167
scalar SingleCell_D2D.ueD2DTx[1].cellularNic.mac receivedPacketFromLowerLayer:count 501
scalar SingleCell_D2D.ueD2DTx[1].cellularNic.mac receivedPacketFromLowerLayer:sum(packetBytes) 501
scalar SingleCell_D2D.ueD2DTx[1].cellularNic.mac receivedPacketFromUpperLayer:count 334
scalar SingleCell_D2D.ueD2DTx[1].cellularNic.mac receivedPacketFromUpperLayer:sum(packetBytes) 23380
scalar SingleCell_D2D.ueD2DTx[1].cellularNic.mac macBufferOverFlowD2D:mean -nan
scalar SingleCell_D2D.ueD2DTx[1].cellularNic.mac macBufferOverFlowUl:mean -nan
scalar SingleCell_D2D.ueD2DTx[1].cellularNic.mac macBufferOverFlowDl:mean -nan
scalar SingleCell_D2D.ueD2DTx[1].cellularNic.phy distance:mean -nan
scalar SingleCell_D2D.ueD2DTx[1].cellularNic.phy averageCqiUl:mean 15
scalar SingleCell_D2D.ueD2DTx[1].cellularNic.phy averageCqiUl:count 167
scalar SingleCell_D2D.ueD2DTx[1].cellularNic.phy averageCqiDl:mean -nan
scalar SingleCell_D2D.ueD2DTx[1].cellularNic.phy averageCqiDl:count 0
scalar SingleCell_D2D.ueD2DTx[1].cellularNic.channelModel[0] measuredSinrUl:mean 49.526684681884262
scalar SingleCell_D2D.ueD2DTx[1].cellularNic.channelModel[0] measuredSinrDl:mean 62.979459871157388
scalar SingleCell_D2D.ueD2DTx[1].cellularNic.channelModel[0] rcvdSinrD2D:mean -nan
scalar SingleCell_D2D.ueD2DTx[1].cellularNic.channelModel[0] rcvdSinrUl:mean 37.534578580001003
scalar SingleCell_D2D.ueD2DTx[1].cellularNic.channelModel[0] rcvdSinrDl:mean -nan
scalar SingleCell_D2D.ueD2DTx[1].cellularNic packetDropInterfaceDown:count 0
scalar SingleCell_D2D.ueD2DTx[1].cellularNic packetDropInterfaceDown:sum(packetBytes) 0
scalar SingleCell_D2D.ueD2DTx[1].cellularNic packetDropNoCarrier:count 0
scalar SingleCell_D2D.ueD2DTx[1].cellularNic packetDropNoCarrier:sum(packetBytes) 0
scalar SingleCell_D2D.ueD2DTx[1].encap pauseSent:count 0
scalar SingleCell_D2D.ueD2DTx[1].encap pauseSent:sum 0
scalar SingleCell_D2D.ueD2DTx[1].encap decapPk:count 0
scalar SingleCell_D2D.ueD2DTx[1].encap decapPk:sum(packetBytes) 0
scalar SingleCell_D2D.ueD2DTx[1].encap encapPk:count 0
scalar SingleCell_D2D.ueD2DTx[1].encap encapPk:sum(packetBytes) 0
scalar SingleCell_D2D.ueD2DTx[1].ipv4.ip packetDropAddressResolutionFailed:count 0
scalar SingleCell_D2D.ueD2DTx[1].ipv4.ip packetDropAddressResolutionFailed:sum(packetBytes) 0
scalar SingleCell_D2D.ueD2DTx[1].ipv4.ip packetDropHopLimitReached:count 0
scalar SingleCell_D2D.ueD2DTx[1].ipv4.ip packetDropHopLimitReached:sum(packetBytes) 0
scalar SingleCell_D2D.ueD2DTx[1].ipv4.ip packetDropForwardingDisabled:count 0
scalar SingleCell_D2D.ueD2DTx[1].ipv4.ip packetDropForwardingDisabled:sum(packetBytes) 0
scalar SingleCell_D2D.ueD2DTx[1].ipv4.ip packetDropNoInterfaceFound:count 0
scalar SingleCell_D2D.ueD2DTx[1].ipv4.ip packetDropNoInterfaceFound:sum(packetBytes) 0
scalar SingleCell_D2D.ueD2DTx[1].ipv4.ip packetDropNoRouteFound:count 0
scalar SingleCell_D2D.ueD2DTx[1].ipv4.ip packetDropNoRouteFound:sum(packetBytes) 0
scalar SingleCell_D2D.ueD2DTx[1].ipv4.ip packetDropUndefined:count 0
scalar SingleCell_D2D.ueD2DTx[1].ipv4.ip packetDropUndefined:sum(packetBytes) 0
scalar SingleCell_D2D.ueD2DTx[1].ipv4.arp arpResolutionFailed:count 0
scalar SingleCell_D2D.ueD2DTx[1].ipv4.arp arpResolutionCompleted:count 0
scalar SingleCell_D2D.ueD2DTx[1].ipv4.arp arpResolutionInitiated:count 0
scalar SingleCell_D2D.ueD2DTx[1].ipv4.arp arpReplySent:count 0
scalar SingleCell_D2D.ueD2DTx[1].ipv4.arp arpReplySent:sum(packetBytes) 0
scalar SingleCell_D2D.ueD2DTx[1].ipv4.arp arpRequestSent:count 0
scalar SingleCell_D2D.ueD2DTx[1].ipv4.arp arpRequestSent:sum(packetBytes) 0
scalar SingleCell_D2D.ueD2DTx[1].udp packetReceived:count 0
scalar SingleCell_D2D.ueD2DTx[1].udp packetReceived:sum(packetBytes) 0
scalar SingleCell_D2D.ueD2DTx[1].udp packetSent:count 167
scalar SingleCell_D2D.ueD2DTx[1].udp packetSent:sum(packetBytes) 8016
scalar SingleCell_D2D.ueD2DTx[1].udp passedUpPk:count 0
scalar SingleCell_D2D.ueD2DTx[1].udp droppedPkWrongPort:count 0
scalar SingleCell_D2D.ueD2DTx[1].udp droppedPkBadChecksum:count 0
scalar SingleCell_D2D.ueD2DTx[1].app[0] voipGeneratedThroughput:simu5g_rateavg 1570.0195041391964
scalar SingleCell_D2D.ueD2DTx[2].lo[0].lo rcvdPkFromHl:count 0
scalar SingleCell_D2D.ueD2DTx[2].lo[0].lo rcvdPkFromHl:sum(packetBytes) 0
scalar SingleCell_D2D.ueD2DTx[2].lo[0].lo passedUpPk:count 0
scalar SingleCell_D2D.ueD2DTx[2].lo[0].lo passedUpPk:sum(packetBytes) 0
scalar SingleCell_D2D.ueD2DTx[2].lo[0] packetDropInterfaceDown:count 0
scalar SingleCell_D2D.ueD2DTx[2].lo[0] packetDropInterfaceDown:sum(packetBytes) 0
scalar SingleCell_D2D.ueD2DTx[2].lo[0] packetDropNoCarrier:count 0
scalar SingleCell_D2D.ueD2DTx[2].lo[0] packetDropNoCarrier:sum(packetBytes) 0
scalar SingleCell_D2D.ueD2DTx[2].cellularNic.pdcp sentPacketToLowerLayer:count 111
scalar SingleCell_D2D.ueD2DTx[2].cellularNic.pdcp sentPacketToLowerLayer:sum(packetBytes) 7659
scalar SingleCell_D2D.ueD2DTx[2].cellularNic.pdcp sentPacketToUpperLayer:count 0
scalar SingleCell_D2D.ueD2DTx[2].cellularNic.pdcp sentPacketToUpperLayer:sum(packetBytes) 0
scalar SingleCell_D2D.ueD2DTx[2].cellularNic.pdcp receivedPacketFromLowerLayer:count 0
scalar SingleCell_D2D.ueD2DTx[2].cellularNic.pdcp receivedPacketFromLowerLayer:sum(packetBytes) 0
scalar SingleCell_D2D.ueD2DTx[2].cellularNic.pdcp receivedPacketFromUpperLayer:count 111
scalar SingleCell_D2D.ueD2DTx[2].cellularNic.pdcp receivedPacketFromUpperLayer:sum(packetBytes) 7548
scalar SingleCell_D2D.ueD2DTx[2].cellularNic.rlc.tm rlcPacketLossUl:mean -nan
scalar SingleCell_D2D.ueD2DTx[2].cellularNic.rlc.tm rlcPacketLossUl:sum 0
scalar SingleCell_D2D.ueD2DTx[2].cellularNic.rlc.tm rlcPacketLossDl:mean -nan
scalar SingleCell_D2D.ueD2DTx[2].cellularNic.rlc.tm rlcPacketLossDl:sum 0
scalar SingleCell_D2D.ueD2DTx[2].cellularNic.rlc.tm sentPacketToLowerLayer:count 0
scalar SingleCell_D2D.ueD2DTx[2].cellularNic.rlc.tm sentPacketToLowerLayer:sum(packetBytes) 0
scalar SingleCell_D2D.ueD2DTx[2].cellularNic.rlc.tm sentPacketToUpperLayer:count 0
scalar SingleCell_D2D.ueD2DTx[2].cellularNic.rlc.tm sentPacketToUpperLayer:sum(packetBytes) 0
scalar SingleCell_D2D.ueD2DTx[2].cellularNic.rlc.tm receivedPacketFromLowerLayer:count 0
scalar SingleCell_D2D.ueD2DTx[2].cellularNic.rlc.tm receivedPacketFromLowerLayer:sum(packetBytes) 0
scalar SingleCell_D2D.ueD2DTx[2].cellularNic.rlc.tm receivedPacketFromUpperLayer:count 0
scalar SingleCell_D2D.ueD2DTx[2].cellularNic.rlc.tm receivedPacketFromUpperLayer:sum(packetBytes) 0
scalar SingleCell_D2D.ueD2DTx[2].cellularNic.rlc.um rlcCellThroughputUl:simu5g_rateavg -nan
scalar SingleCell_D2D.ueD2DTx[2].cellularNic.rlc.um rlcCellThroughputDl:simu5g_rateavg -nan
scalar SingleCell_D2D.ueD2DTx[2].cellularNic.rlc.um rlcPduThroughputUl:simu5g_rateavg 0
scalar SingleCell_D2D.ueD2DTx[2].cellularNic.rlc.um rlcPduThroughputDl:simu5g_rateavg -nan
scalar SingleCell_D2D.ueD2DTx[2].cellularNic.rlc.um rlcPduDelayUl:mean 0.0040000000000000027
scalar SingleCell_D2D.ueD2DTx[2].cellularNic.rlc.um rlcPduDelayDl:mean -nan
scalar SingleCell_D2D.ueD2DTx[2].cellularNic.rlc.um rlcThroughputUl:simu5g_rateavg 1216.4066951470095
scalar SingleCell_D2D.ueD2DTx[2].cellularNic.rlc.um rlcThroughputDl:simu5g_rateavg -nan
scalar SingleCell_D2D.ueD2DTx[2].cellularNic.rlc.um rlcDelayUl:mean 0.008184471474747726
scalar SingleCell_D2D.ueD2DTx[2].cellularNic.rlc.um rlcDelayDl:mean -nan
scalar SingleCell_D2D.ueD2DTx[2].cellularNic.rlc.um sentPacketToLowerLayer:count 111
scalar SingleCell_D2D.ueD2DTx[2].cellularNic.rlc.um sentPacketToLowerLayer:sum(packetBytes) 7881
scalar SingleCell_D2D.ueD2DTx[2].cellularNic.rlc.um sentPacketToUpperLayer:count 0
scalar SingleCell_D2D.ueD2DTx[2].cellularNic.rlc.um sentPacketToUpperLayer:sum(packetBytes) 0
scalar SingleCell_D2D.ueD2DTx[2].cellularNic.rlc.um receivedPacketFromLowerLayer:count 0
scalar SingleCell_D2D.ueD2DTx[2].cellularNic.rlc.um receivedPacketFromLowerLayer:sum(packetBytes) 0
scalar SingleCell_D2D.ueD2DTx[2].cellularNic.rlc.um receivedPacketFromUpperLayer:count 111
scalar SingleCell_D2D.ueD2DTx[2].cellularNic.rlc.um receivedPacketFromUpperLayer:sum(packetBytes) 7659
scalar SingleCell_D2D.ueD2DTx[2].cellularNic.rlc.am rlcPacketLossTotal:mean -nan
scalar SingleCell_D2D.ueD2DTx[2].cellularNic.rlc.am rlcCellThroughputUl:simu5g_rateavg -nan
scalar SingleCell_D2D.ueD2DTx[2].cellularNic.rlc.am rlcCellThroughputDl:simu5g_rateavg -nan
scalar SingleCell_D2D.ueD2DTx[2].cellularNic.rlc.am rlcPduThroughputUl:simu5g_rateavg -nan
scalar SingleCell_D2D.ueD2DTx[2].cellularNic.rlc.am rlcPduThroughputDl:simu5g_rateavg -nan
scalar SingleCell_D2D.ueD2DTx[2].cellularNic.rlc.am rlcPduDelayUl:mean -nan
scalar SingleCell_D2D.ueD2DTx[2].cellularNic.rlc.am rlcPduDelayDl:mean -nan
scalar SingleCell_D2D.ueD2DTx[2].cellularNic.rlc.am rlcThroughputUl:simu5g_rateavg -nan
scalar SingleCell_D2D.ueD2DTx[2].cellularNic.rlc.am rlcThroughputDl:simu5g_rateavg -nan
scalar SingleCell_D2D.ueD2DTx[2].cellularNic.rlc.am rlcDelayUl:mean -nan
scalar SingleCell_D2D.ueD2DTx[2].cellularNic.rlc.am rlcDelayDl:mean -nan
scalar SingleCell_D2D.ueD2DTx[2].cellularNic.rlc.am rlcPduPacketLossUl:mean -nan
scalar SingleCell_D2D.ueD2DTx[2].cellularNic.rlc.am rlcPduPacketLossDl:mean -nan
scalar SingleCell_D2D.ueD2DTx[2].cellularNic.rlc.am rlcPacketLossUl:mean -nan
scalar SingleCell_D2D.ueD2DTx[2].cellularNic.rlc.am rlcPacketLossDl:mean -nan
scalar SingleCell_D2D.ueD2DTx[2].cellularNic.rlc.am rlcCellPacketLossUl:mean -nan
scalar SingleCell_D2D.ueD2DTx[2].cellularNic.rlc.am rlcCellPacketLossDl:mean -nan
scalar SingleCell_D2D.ueD2DTx[2].cellularNic.mac harqTxAttemptsUl:mean 1
scalar SingleCell_D2D.ueD2DTx[2].cellularNic.mac harqTxAttemptsDl:mean -nan
scalar SingleCell_D2D.ueD2DTx[2].cellularNic.mac harqErrorRate_4th_Ul:mean -nan
scalar SingleCell_D2D.ueD2DTx[2].cellularNic.mac harqErrorRate_4th_Dl:mean -nan
scalar SingleCell_D2D.ueD2DTx[2].cellularNic.mac harqErrorRate_3rd_Ul:mean -nan
scalar SingleCell_D2D.ueD2DTx[2].cellularNic.mac harqErrorRate_3rd_Dl:mean -nan
scalar SingleCell_D2D.ueD2DTx[2].cellularNic.mac harqErrorRate_2nd_Ul:mean -nan
scalar SingleCell_D2D.ueD2DTx[2].cellularNic.mac harqErrorRate_2nd_Dl:mean -nan
scalar SingleCell_D2D.ueD2DTx[2].cellularNic.mac harqErrorRate_1st_Ul:mean 0
scalar SingleCell_D2D.ueD2DTx[2].cellularNic.mac harqErrorRate_1st_Dl:mean -nan
scalar SingleCell_D2D.ueD2DTx[2].cellularNic.mac harqErrorRateUl:mean 0
scalar SingleCell_D2D.ueD2DTx[2].cellularNic.mac harqErrorRateDl:mean -nan
scalar SingleCell_D2D.ueD2DTx[2].cellularNic.mac macCellPacketLossUl:mean -nan
scalar SingleCell_D2D.ueD2DTx[2].cellularNic.mac macCellPacketLossDl:mean -nan
scalar SingleCell_D2D.ueD2DTx[2].cellularNic.mac macPacketLossUl:mean 0
scalar SingleCell_D2D.ueD2DTx[2].cellularNic.mac macPacketLossDl:mean -nan
scalar SingleCell_D2D.ueD2DTx[2].cellularNic.mac macThroughputUl:simu5g_rateavg 1286.9230253004596
scalar SingleCell_D2D.ueD2DTx[2].cellularNic.mac macThroughputDl:simu5g_rateavg -nan
scalar SingleCell_D2D.ueD2DTx[2].cellularNic.mac macDelayUl:mean 0.0040000000000000027
scalar SingleCell_D2D.ueD2DTx[2].cellularNic.mac macDelayDl:mean -nan
scalar SingleCell_D2D.ueD2DTx[2].cellularNic.mac macCellThroughputUl:simu5g_rateavg -nan
scalar SingleCell_D2D.ueD2DTx[2].cellularNic.mac macCellThroughputDl:simu5g_rateavg -nan
scalar SingleCell_D2D.ueD2DTx[2].cellularNic.mac sentPacketToLowerLayer:count 222
scalar SingleCell_D2D.ueD2DTx[2].cellularNic.mac sentPacketToLowerLayer:sum(packetBytes) 8214
scalar SingleCell_D2D.ueD2DTx[2].cellularNic.mac sentPacketToUpperLayer:count 111
scalar SingleCell_D2D.ueD2DTx[2].cellularNic.mac sentPacketToUpperLayer:sum(packetBytes) 111
scalar SingleCell_D2D.ueD2DTx[2].cellularNic.mac receivedPacketFromLowerLayer:count 333
scalar SingleCell_D2D.ueD2DTx[2].cellularNic.mac receivedPacketFromLowerLayer:sum(packetBytes) 333
scalar SingleCell_D2D.ueD2DTx[2].cellularNic.mac receivedPacketFromUpperLayer:count 222
scalar SingleCell_D2D.ueD2DTx[2].cellularNic.mac receivedPacketFromUpperLayer:sum(packetBytes) 15540
scalar SingleCell_D2D.ueD2DTx[2].cellularNic.mac macBufferOverFlowD2D:mean -nan
scalar SingleCell_D2D.ueD2DTx[2].cellularNic.mac macBufferOverFlowUl:mean -nan
scalar SingleCell_D2D.ueD2DTx[2].cellularNic.mac macBufferOverFlowDl:mean -nan
scalar SingleCell_D2D.ueD2DTx[2].cellularNic.phy distance:mean -nan
scalar SingleCell_D2D.ueD2DTx[2].cellularNic.phy averageCqiUl:mean 15
scalar SingleCell_D2D.ueD2DTx[2].cellularNic.phy averageCqiUl:count 111
scalar SingleCell_D2D.ueD2DTx[2].cellularNic.phy averageCqiDl:mean -nan
scalar SingleCell_D2D.ueD2DTx[2].cellularNic.phy averageCqiDl:count 0
scalar SingleCell_D2D.ueD2DTx[2].cellularNic.channelModel[0] measuredSinrUl:mean 58.853312134590432
scalar SingleCell_D2D.ueD2DTx[2].cellularNic.channelModel[0] measuredSinrDl:mean 75.937235383367835
scalar SingleCell_D2D.ueD2DTx[2].cellularNic.channelModel[0] rcvdSinrD2D:mean -nan
scalar SingleCell_D2D.ueD2DTx[2].cellularNic.channelModel[0] rcvdSinrUl:mean 58.79971850481526
scalar SingleCell_D2D.ueD2DTx[2].cellularNic.channelModel[0] rcvdSinrDl:mean -nan
scalar SingleCell_D2D.ueD2DTx[2].cellularNic packetDropInterfaceDown:count 0
scalar SingleCell_D2D.ueD2DTx[2].cellularNic packetDropInterfaceDown:sum(packetBytes) 0
scalar SingleCell_D2D.ueD2DTx[2].cellularNic packetDropNoCarrier:count 0
scalar SingleCell_D2D.ueD2DTx[2].cellularNic packetDropNoCarrier:sum(packetBytes) 0
scalar SingleCell_D2D.ueD2DTx[2].encap pauseSent:count 0
scalar SingleCell_D2D.ueD2DTx[2].encap pauseSent:sum 0
scalar SingleCell_D2D.ueD2DTx[2].encap decapPk:count 0
scalar SingleCell_D2D.ueD2DTx[2].encap decapPk:sum(packetBytes) 0
scalar SingleCell_D2D.ueD2DTx[2].encap encapPk:count 0
scalar SingleCell_D2D.ueD2DTx[2].encap encapPk:sum(packetBytes) 0
scalar SingleCell_D2D.ueD2DTx[2].ipv4.ip packetDropAddressResolutionFailed:count 0
scalar SingleCell_D2D.ueD2DTx[2].ipv4.ip packetDropAddressResolutionFailed:sum(packetBytes) 0
scalar SingleCell_D2D.ueD2DTx[2].ipv4.ip packetDropHopLimitReached:count 0
scalar SingleCell_D2D.ueD2DTx[2].ipv4.ip packetDropHopLimitReached:sum(packetBytes) 0
scalar SingleCell_D2D.ueD2DTx[2].ipv4.ip packetDropForwardingDisabled:count 0
scalar SingleCell_D2D.ueD2DTx[2].ipv4.ip packetDropForwardingDisabled:sum(packetBytes) 0
scalar SingleCell_D2D.ueD2DTx[2].ipv4.ip packetDropNoInterfaceFound:count 0
scalar SingleCell_D2D.ueD2DTx[2].ipv4.ip packetDropNoInterfaceFound:sum(packetBytes) 0
scalar SingleCell_D2D.ueD2DTx[2].ipv4.ip packetDropNoRouteFound:count 0
scalar SingleCell_D2D.ueD2DTx[2].ipv4.ip packetDropNoRouteFound:sum(packetBytes) 0
scalar SingleCell_D2D.ueD2DTx[2].ipv4.ip packetDropUndefined:count 0
scalar SingleCell_D2D.ueD2DTx[2].ipv4.ip packetDropUndefined:sum(packetBytes) 0
scalar SingleCell_D2D.ueD2DTx[2].ipv4.arp arpResolutionFailed:count 0
scalar SingleCell_D2D.ueD2DTx[2].ipv4.arp arpResolutionCompleted:count 0
scalar SingleCell_D2D.ueD2DTx[2].ipv4.arp arpResolutionInitiated:count 0
scalar SingleCell_D2D.ueD2DTx[2].ipv4.arp arpReplySent:count 0
scalar SingleCell_D2D.ueD2DTx[2].ipv4.arp arpReplySent:sum(packetBytes) 0
scalar SingleCell_D2D.ueD2DTx[2].ipv4.arp arpRequestSent:count 0
scalar SingleCell_D2D.ueD2DTx[2].ipv4.arp arpRequestSent:sum(packetBytes) 0
scalar SingleCell_D2D.ueD2DTx[2].udp packetReceived:count 0
scalar SingleCell_D2D.ueD2DTx[2].udp packetReceived:sum(packetBytes) 0
scalar SingleCell_D2D.ueD2DTx[2].udp packetSent:count 111
scalar SingleCell_D2D.ueD2DTx[2].udp packetSent:sum(packetBytes) 5328
scalar SingleCell_D2D.ueD2DTx[2].udp passedUpPk:count 0
scalar SingleCell_D2D.ueD2DTx[2].udp droppedPkWrongPort:count 0
scalar SingleCell_D2D.ueD2DTx[2].udp droppedPkBadChecksum:count 0
scalar SingleCell_D2D.ueD2DTx[2].app[0] voipGeneratedThroughput:simu5g_rateavg 718.09379848891126
scalar SingleCell_D2D.ueD2DTx[3].lo[0].lo rcvdPkFromHl:count 0
scalar SingleCell_D2D.ueD2DTx[3].lo[0].lo rcvdPkFromHl:sum(packetBytes) 0
scalar SingleCell_D2D.ueD2DTx[3].lo[0].lo passedUpPk:count 0
scalar SingleCell_D2D.ueD2DTx[3].lo[0].lo passedUpPk:sum(packetBytes) 0
scalar SingleCell_D2D.ueD2DTx[3].lo[0] packetDropInterfaceDown:count 0
scalar SingleCell_D2D.ueD2DTx[3].lo[0] packetDropInterfaceDown:sum(packetBytes) 0
scalar SingleCell_D2D.ueD2DTx[3].lo[0] packetDropNoCarrier:count 0
scalar SingleCell_D2D.ueD2DTx[3].lo[0] packetDropNoCarrier:sum(packetBytes) 0
scalar SingleCell_D2D.ueD2DTx[3].cellularNic.pdcp sentPacketToLowerLayer:count 250
scalar SingleCell_D2D.ueD2DTx[3].cellularNic.pdcp sentPacketToLowerLayer:sum(packetBytes) 17250
scalar SingleCell_D2D.ueD2DTx[3].cellularNic.pdcp sentPacketToUpperLayer:count 0
scalar SingleCell_D2D.ueD2DTx[3].cellularNic.pdcp sentPacketToUpperLayer:sum(packetBytes) 0
scalar SingleCell_D2D.ueD2DTx[3].cellularNic.pdcp receivedPacketFromLowerLayer:count 0
scalar SingleCell_D2D.ueD2DTx[3].cellularNic.pdcp receivedPacketFromLowerLayer:sum(packetBytes) 0
scalar SingleCell_D2D.ueD2DTx[3].cellularNic.pdcp receivedPacketFromUpperLayer:count 250
scalar SingleCell_D2D.ueD2DTx[3].cellularNic.pdcp receivedPacketFromUpperLayer:sum(packetBytes) 17000
scalar SingleCell_D2D.ueD2DTx[3].cellularNic.rlc.tm rlcPacketLossUl:mean -nan
scalar SingleCell_D2D.ueD2DTx[3].cellularNic.rlc.tm rlcPacketLossUl:sum 0
scalar SingleCell_D2D.ueD2DTx[3].cellularNic.rlc.tm rlcPacketLossDl:mean -nan
scalar SingleCell_D2D.ueD2DTx[3].cellularNic.rlc.tm rlcPacketLossDl:sum 0
scalar SingleCell_D2D.ueD2DTx[3].cellularNic.rlc.tm sentPacketToLowerLayer:count 0
scalar SingleCell_D2D.ueD2DTx[3].cellularNic.rlc.tm sentPacketToLowerLayer:sum(packetBytes) 0
scalar SingleCell_D2D.ueD2DTx[3].cellularNic.rlc.tm sentPacketToUpperLayer:count 0
scalar SingleCell_D2D.ueD2DTx[3].cellularNic.rlc.tm sentPacketToUpperLayer:sum(packetBytes) 0
scalar SingleCell_D2D.ueD2DTx[3].cellularNic.rlc.tm receivedPacketFromLowerLayer:count 0
scalar SingleCell_D2D.ueD2DTx[3].cellularNic.rlc.tm receivedPacketFromLowerLayer:sum(packetBytes) 0
scalar SingleCell_D2D.ueD2DTx[3].cellularNic.rlc.tm receivedPacketFromUpperLayer:count 0
scalar SingleCell_D2D.ueD2DTx[3].cellularNic.rlc.tm receivedPacketFromUpperLayer:sum(packetBytes) 0
scalar SingleCell_D2D.ueD2DTx[3].cellularNic.rlc.um rlcCellThroughputUl:simu5g_rateavg -nan
scalar SingleCell_D2D.ueD2DTx[3].cellularNic.rlc.um rlcCellThroughputDl:simu5g_rateavg -nan
scalar SingleCell_D2D.ueD2DTx[3].cellularNic.rlc.um rlcPduThroughputUl:simu5g_rateavg 0
scalar SingleCell_D2D.ueD2DTx[3].cellularNic.rlc.um rlcPduThroughputDl:simu5g_rateavg -nan
scalar SingleCell_D2D.ueD2DTx[3].cellularNic.rlc.um rlcPduDelayUl:mean 0.0040000000000000027
scalar SingleCell_D2D.ueD2DTx[3].cellularNic.rlc.um rlcPduDelayDl:mean -nan
scalar SingleCell_D2D.ueD2DTx[3].cellularNic.rlc.um rlcThroughputUl:simu5g_rateavg 3485.3614719179245
scalar SingleCell_D2D.ueD2DTx[3].cellularNic.rlc.um rlcThroughputDl:simu5g_rateavg -nan
scalar SingleCell_D2D.ueD2DTx[3].cellularNic.rlc.um rlcDelayUl:mean 0.0088106181830000362
scalar SingleCell_D2D.ueD2DTx[3].cellularNic.rlc.um rlcDelayDl:mean -nan
scalar SingleCell_D2D.ueD2DTx[3].cellularNic.rlc.um sentPacketToLowerLayer:count 250
scalar SingleCell_D2D.ueD2DTx[3].cellularNic.rlc.um sentPacketToLowerLayer:sum(packetBytes) 17750
scalar SingleCell_D2D.ueD2DTx[3].cellularNic.rlc.um sentPacketToUpperLayer:count 0
scalar SingleCell_D2D.ueD2DTx[3].cellularNic.rlc.um sentPacketToUpperLayer:sum(packetBytes) 0
scalar SingleCell_D2D.ueD2DTx[3].cellularNic.rlc.um receivedPacketFromLowerLayer:count 0
scalar SingleCell_D2D.ueD2DTx[3].cellularNic.rlc.um receivedPacketFromLowerLayer:sum(packetBytes) 0
scalar SingleCell_D2D.ueD2DTx[3].cellularNic.rlc.um receivedPacketFromUpperLayer:count 250
scalar SingleCell_D2D.ueD2DTx[3].cellularNic.rlc.um receivedPacketFromUpperLayer:sum(packetBytes) 17250
scalar SingleCell_D2D.ueD2DTx[3].cellularNic.rlc.am rlcPacketLossTotal:mean -nan
scalar SingleCell_D2D.ueD2DTx[3].cellularNic.rlc.am rlcCellThroughputUl:simu5g_rateavg -nan
scalar SingleCell_D2D.ueD2DTx[3].cellularNic.rlc.am rlcCellThroughputDl:simu5g_rateavg -nan
scalar SingleCell_D2D.ueD2DTx[3].cellularNic.rlc.am rlcPduThroughputUl:simu5g_rateavg -nan
scalar SingleCell_D2D.ueD2DTx[3].cellularNic.rlc.am rlcPduThroughputDl:simu5g_rateavg -nan
scalar SingleCell_D2D.ueD2DTx[3].cellularNic.rlc.am rlcPduDelayUl:mean -nan
scalar SingleCell_D2D.ueD2DTx[3].cellularNic.rlc.am rlcPduDelayDl:mean -nan
scalar SingleCell_D2D.ueD2DTx[3].cellularNic.rlc.am rlcThroughputUl:simu5g_rateavg -nan
scalar SingleCell_D2D.ueD2DTx[3].cellularNic.rlc.am rlcThroughputDl:simu5g_rateavg -nan
scalar SingleCell_D2D.ueD2DTx[3].cellularNic.rlc.am rlcDelayUl:mean -nan
scalar SingleCell_D2D.ueD2DTx[3].cellularNic.rlc.am rlcDelayDl:mean -nan
scalar SingleCell_D2D.ueD2DTx[3].cellularNic.rlc.am rlcPduPacketLossUl:mean -nan
scalar SingleCell_D2D.ueD2DTx[3].cellularNic.rlc.am rlcPduPacketLossDl:mean -nan
scalar SingleCell_D2D.ueD2DTx[3].cellularNic.rlc.am rlcPacketLossUl:mean -nan
scalar SingleCell_D2D.ueD2DTx[3].cellularNic.rlc.am rlcPacketLossDl:mean -nan
scalar SingleCell_D2D.ueD2DTx[3].cellularNic.rlc.am rlcCellPacketLossUl:mean -nan
scalar SingleCell_D2D.ueD2DTx[3].cellularNic.rlc.am rlcCellPacketLossDl:mean -nan
scalar SingleCell_D2D.ueD2DTx[3].cellularNic.mac harqTxAttemptsUl:mean 1
scalar SingleCell_D2D.ueD2DTx[3].cellularNic.mac harqTxAttemptsDl:mean -nan
scalar SingleCell_D2D.ueD2DTx[3].cellularNic.mac harqErrorRate_4th_Ul:mean -nan
scalar SingleCell_D2D.ueD2DTx[3].cellularNic.mac harqErrorRate_4th_Dl:mean -nan
scalar SingleCell_D2D.ueD2DTx[3].cellularNic.mac harqErrorRate_3rd_Ul:mean -nan
scalar SingleCell_D2D.ueD2DTx[3].cellularNic.mac harqErrorRate_3rd_Dl:mean -nan
scalar SingleCell_D2D.ueD2DTx[3].cellularNic.mac harqErrorRate_2nd_Ul:mean -nan
scalar SingleCell_D2D.ueD2DTx[3].cellularNic.mac harqErrorRate_2nd_Dl:mean -nan
scalar SingleCell_D2D.ueD2DTx[3].cellularNic.mac harqErrorRate_1st_Ul:mean 0
scalar SingleCell_D2D.ueD2DTx[3].cellularNic.mac harqErrorRate_1st_Dl:mean -nan
scalar SingleCell_D2D.ueD2DTx[3].cellularNic.mac harqErrorRateUl:mean 0
scalar SingleCell_D2D.ueD2DTx[3].cellularNic.mac harqErrorRateDl:mean -nan
scalar SingleCell_D2D.ueD2DTx[3].cellularNic.mac macCellPacketLossUl:mean -nan
scalar SingleCell_D2D.ueD2DTx[3].cellularNic.mac macCellPacketLossDl:mean -nan
scalar SingleCell_D2D.ueD2DTx[3].cellularNic.mac macPacketLossUl:mean 0
scalar SingleCell_D2D.ueD2DTx[3].cellularNic.mac macPacketLossDl:mean -nan
scalar SingleCell_D2D.ueD2DTx[3].cellularNic.mac macThroughputUl:simu5g_rateavg 3687.4114123189629
scalar SingleCell_D2D.ueD2DTx[3].cellularNic.mac macThroughputDl:simu5g_rateavg -nan
scalar SingleCell_D2D.ueD2DTx[3].cellularNic.mac macDelayUl:mean 0.0040000000000000027
scalar SingleCell_D2D.ueD2DTx[3].cellularNic.mac macDelayDl:mean -nan
scalar SingleCell_D2D.ueD2DTx[3].cellularNic.mac macCellThroughputUl:simu5g_rateavg -nan
scalar SingleCell_D2D.ueD2DTx[3].cellularNic.mac macCellThroughputDl:simu5g_rateavg -nan
scalar SingleCell_D2D.ueD2DTx[3].cellularNic.mac sentPacketToLowerLayer:count 500
scalar SingleCell_D2D.ueD2DTx[3].cellularNic.mac sentPacketToLowerLayer:sum(packetBytes) 18500
scalar SingleCell_D2D.ueD2DTx[3].cellularNic.mac sentPacketToUpperLayer:count 250
scalar SingleCell_D2D.ueD2DTx[3].cellularNic.mac sentPacketToUpperLayer:sum(packetBytes) 250
scalar SingleCell_D2D.ueD2DTx[3].cellularNic.mac receivedPacketFromLowerLayer:count 750
scalar SingleCell_D2D.ueD2DTx[3].cellularNic.mac receivedPacketFromLowerLayer:sum(packetBytes) 750
scalar SingleCell_D2D.ueD2DTx[3].cellularNic.mac receivedPacketFromUpperLayer:count 500
scalar SingleCell_D2D.ueD2DTx[3].cellularNic.mac receivedPacketFromUpperLayer:sum(packetBytes) 35000
scalar SingleCell_D2D.ueD2DTx[3].cellularNic.mac macBufferOverFlowD2D:mean -nan
scalar SingleCell_D2D.ueD2DTx[3].cellularNic.mac macBufferOverFlowUl:mean -nan
scalar SingleCell_D2D.ueD2DTx[3].cellularNic.mac macBufferOverFlowDl:mean -nan
scalar SingleCell_D2D.ueD2DTx[3].cellularNic.phy distance:mean -nan
scalar SingleCell_D2D.ueD2DTx[3].cellularNic.phy averageCqiUl:mean 15
scalar SingleCell_D2D.ueD2DTx[3].cellularNic.phy averageCqiUl:count 250
scalar SingleCell_D2D.ueD2DTx[3].cellularNic.phy averageCqiDl:mean -nan
scalar SingleCell_D2D.ueD2DTx[3].cellularNic.phy averageCqiDl:count 0
scalar SingleCell_D2D.ueD2DTx[3].cellularNic.channelModel[0] measuredSinrUl:mean 56.750333057054227
scalar SingleCell_D2D.ueD2DTx[3].cellularNic.channelModel[0] measuredSinrDl:mean 79.714532411394885
scalar SingleCell_D2D.ueD2DTx[3].cellularNic.channelModel[0] rcvdSinrD2D:mean -nan
scalar SingleCell_D2D.ueD2DTx[3].cellularNic.channelModel[0] rcvdSinrUl:mean 57.226998227191771
scalar SingleCell_D2D.ueD2DTx[3].cellularNic.channelModel[0] rcvdSinrDl:mean -nan
scalar SingleCell_D2D.ueD2DTx[3].cellularNic packetDropInterfaceDown:count 0
scalar SingleCell_D2D.ueD2DTx[3].cellularNic packetDropInterfaceDown:sum(packetBytes) 0
scalar SingleCell_D2D.ueD2DTx[3].cellularNic packetDropNoCarrier:count 0
scalar SingleCell_D2D.ueD2DTx[3].cellularNic packetDropNoCarrier:sum(packetBytes) 0
scalar SingleCell_D2D.ueD2DTx[3].encap pauseSent:count 0
scalar SingleCell_D2D.ueD2DTx[3].encap pauseSent:sum 0
scalar SingleCell_D2D.ueD2DTx[3].encap decapPk:count 0
scalar SingleCell_D2D.ueD2DTx[3].encap decapPk:sum(packetBytes) 0
scalar SingleCell_D2D.ueD2DTx[3].encap encapPk:count 0
scalar SingleCell_D2D.ueD2DTx[3].encap encapPk:sum(packetBytes) 0
scalar SingleCell_D2D.ueD2DTx[3].ipv4.ip packetDropAddressResolutionFailed:count 0
scalar SingleCell_D2D.ueD2DTx[3].ipv4.ip packetDropAddressResolutionFailed:sum(packetBytes) 0
scalar SingleCell_D2D.ueD2DTx[3].ipv4.ip packetDropHopLimitReached:count 0
scalar SingleCell_D2D.ueD2DTx[3].ipv4.ip packetDropHopLimitReached:sum(packetBytes) 0
scalar SingleCell_D2D.ueD2DTx[3].ipv4.ip packetDropForwardingDisabled:count 0
scalar SingleCell_D2D.ueD2DTx[3].ipv4.ip packetDropForwardingDisabled:sum(packetBytes) 0
scalar SingleCell_D2D.ueD2DTx[3].ipv4.ip packetDropNoInterfaceFound:count 0
scalar SingleCell_D2D.ueD2DTx[3].ipv4.ip packetDropNoInterfaceFound:sum(packetBytes) 0
scalar SingleCell_D2D.ueD2DTx[3].ipv4.ip packetDropNoRouteFound:count 0
scalar SingleCell_D2D.ueD2DTx[3].ipv4.ip packetDropNoRouteFound:sum(packetBytes) 0
scalar SingleCell_D2D.ueD2DTx[3].ipv4.ip packetDropUndefined:count 0
scalar SingleCell_D2D.ueD2DTx[3].ipv4.ip packetDropUndefined:sum(packetBytes) 0
scalar SingleCell_D2D.ueD2DTx[3].ipv4.arp arpResolutionFailed:count 0
scalar SingleCell_D2D.ueD2DTx[3].ipv4.arp arpResolutionCompleted:count 0
scalar SingleCell_D2D.ueD2DTx[3].ipv4.arp arpResolutionInitiated:count 0
scalar SingleCell_D2D.ueD2DTx[3].ipv4.arp arpReplySent:count 0
scalar SingleCell_D2D.ueD2DTx[3].ipv4.arp arpReplySent:sum(packetBytes) 0
scalar SingleCell_D2D.ueD2DTx[3].ipv4.arp arpRequestSent:count 0
scalar SingleCell_D2D.ueD2DTx[3].ipv4.arp arpRequestSent:sum(packetBytes) 0
scalar SingleCell_D2D.ueD2DTx[3].udp packetReceived:count 0
scalar SingleCell_D2D.ueD2DTx[3].udp packetReceived:sum(packetBytes) 0
scalar SingleCell_D2D.ueD2DTx[3].udp packetSent:count 250
scalar SingleCell_D2D.ueD2DTx[3].udp packetSent:sum(packetBytes) 12000
scalar SingleCell_D2D.ueD2DTx[3].udp passedUpPk:count 0
scalar SingleCell_D2D.ueD2DTx[3].udp droppedPkWrongPort:count 0
scalar SingleCell_D2D.ueD2DTx[3].udp droppedPkBadChecksum:count 0
scalar SingleCell_D2D.ueD2DTx[3].app[0] voipGeneratedThroughput:simu5g_rateavg 2046.2958070832849
scalar SingleCell_D2D.ueD2DTx[4].lo[0].lo rcvdPkFromHl:count 0
scalar SingleCell_D2D.ueD2DTx[4].lo[0].lo rcvdPkFromHl:sum(packetBytes) 0
scalar SingleCell_D2D.ueD2DTx[4].lo[0].lo passedUpPk:count 0
scalar SingleCell_D2D.ueD2DTx[4].lo[0].lo passedUpPk:sum(packetBytes) 0
scalar SingleCell_D2D.ueD2DTx[4].lo[0] packetDropInterfaceDown:count 0
scalar SingleCell_D2D.ueD2DTx[4].lo[0] packetDropInterfaceDown:sum(packetBytes) 0
scalar SingleCell_D2D.ueD2DTx[4].lo[0] packetDropNoCarrier:count 0
scalar SingleCell_D2D.ueD2DTx[4].lo[0] packetDropNoCarrier:sum(packetBytes) 0
scalar SingleCell_D2D.ueD2DTx[4].cellularNic.pdcp sentPacketToLowerLayer:count 158
scalar SingleCell_D2D.ueD2DTx[4].cellularNic.pdcp sentPacketToLowerLayer:sum(packetBytes) 10902
scalar SingleCell_D2D.ueD2DTx[4].cellularNic.pdcp sentPacketToUpperLayer:count 0
scalar SingleCell_D2D.ueD2DTx[4].cellularNic.pdcp sentPacketToUpperLayer:sum(packetBytes) 0
scalar SingleCell_D2D.ueD2DTx[4].cellularNic.pdcp receivedPacketFromLowerLayer:count 0
scalar SingleCell_D2D.ueD2DTx[4].cellularNic.pdcp receivedPacketFromLowerLayer:sum(packetBytes) 0
scalar SingleCell_D2D.ueD2DTx[4].cellularNic.pdcp receivedPacketFromUpperLayer:count 158
scalar SingleCell_D2D.ueD2DTx[4].cellularNic.pdcp receivedPacketFromUpperLayer:sum(packetBytes) 10744
scalar SingleCell_D2D.ueD2DTx[4].cellularNic.rlc.tm rlcPacketLossUl:mean -nan
scalar SingleCell_D2D.ueD2DTx[4].cellularNic.rlc.tm rlcPacketLossUl:sum 0
scalar SingleCell_D2D.ueD2DTx[4].cellularNic.rlc.tm rlcPacketLossDl:mean -nan
scalar SingleCell_D2D.ueD2DTx[4].cellularNic.rlc.tm rlcPacketLossDl:sum 0
[...]
scalar SingleCell_D2D.ueD2DRx[4].cellularNic.channelModel[0] rcvdSinrDl:vector:sum 12173.419605935349
scalar SingleCell_D2D.ueD2DRx[4].cellularNic.channelModel[0] rcvdSinrDl:vector:sumweights 157
scalar SingleCell_D2D.ueD2DRx[4].cellularNic.channelModel[0] rcvdSinrDl:vector:mean 77.537704496403492
scalar SingleCell_D2D.ueD2DRx[4].cellularNic.channelModel[0] rcvdSinrDl:vector:stddev 5.4895170984928718
scalar SingleCell_D2D.ueD2DRx[4].cellularNic.channelModel[0] rcvdSinrDl:vector:min 62.331607280902446
scalar SingleCell_D2D.ueD2DRx[4].cellularNic.channelModel[0] rcvdSinrDl:vector:max 79.506839387619593
scalar SingleCell_D2D.ueD2DRx[4].cellularNic.channelModel[0] rcvdSinrDl:vector:starttime 0.019
scalar SingleCell_D2D.ueD2DRx[4].cellularNic.channelModel[0] rcvdSinrDl:vector:endtime 4.9880000000000004
scalar SingleCell_D2D.ueD2DRx[4].cellularNic.channelModel[0] rcvdSinrUl:vector:count 0
scalar SingleCell_D2D.ueD2DRx[4].cellularNic.channelModel[0] rcvdSinrUl:vector:sum 0
scalar SingleCell_D2D.ueD2DRx[4].cellularNic.channelModel[0] rcvdSinrUl:vector:sumweights 0
scalar SingleCell_D2D.ueD2DRx[4].cellularNic.channelModel[0] rcvdSinrUl:vector:mean -nan
scalar SingleCell_D2D.ueD2DRx[4].cellularNic.channelModel[0] rcvdSinrUl:vector:stddev nan
scalar SingleCell_D2D.ueD2DRx[4].cellularNic.channelModel[0] rcvdSinrUl:vector:min inf
scalar SingleCell_D2D.ueD2DRx[4].cellularNic.channelModel[0] rcvdSinrUl:vector:max -inf
scalar SingleCell_D2D.ueD2DRx[4].cellularNic.channelModel[0] rcvdSinrUl:vector:starttime nan
scalar SingleCell_D2D.ueD2DRx[4].cellularNic.channelModel[0] rcvdSinrUl:vector:endtime nan
scalar SingleCell_D2D.ueD2DRx[4].cellularNic.channelModel[0] rcvdSinrD2D:vector:count 0
scalar SingleCell_D2D.ueD2DRx[4].cellularNic.channelModel[0] rcvdSinrD2D:vector:sum 0
scalar SingleCell_D2D.ueD2DRx[4].cellularNic.channelModel[0] rcvdSinrD2D:vector:sumweights 0
scalar SingleCell_D2D.ueD2DRx[4].cellularNic.channelModel[0] rcvdSinrD2D:vector:mean -nan
scalar SingleCell_D2D.ueD2DRx[4].cellularNic.channelModel[0] rcvdSinrD2D:vector:stddev nan
scalar SingleCell_D2D.ueD2DRx[4].cellularNic.channelModel[0] rcvdSinrD2D:vector:min inf
scalar SingleCell_D2D.ueD2DRx[4].cellularNic.channelModel[0] rcvdSinrD2D:vector:max -inf
scalar SingleCell_D2D.ueD2DRx[4].cellularNic.channelModel[0] rcvdSinrD2D:vector:starttime nan
scalar SingleCell_D2D.ueD2DRx[4].cellularNic.channelModel[0] rcvdSinrD2D:vector:endtime nan
scalar SingleCell_D2D.ueD2DRx[4].cellularNic.channelModel[0] measuredSinrDl:vector:count 834
scalar SingleCell_D2D.ueD2DRx[4].cellularNic.channelModel[0] measuredSinrDl:vector:sum 64565.59245860736
scalar SingleCell_D2D.ueD2DRx[4].cellularNic.channelModel[0] measuredSinrDl:vector:sumweights 834
scalar SingleCell_D2D.ueD2DRx[4].cellularNic.channelModel[0] measuredSinrDl:vector:mean 77.416777528306184
scalar SingleCell_D2D.ueD2DRx[4].cellularNic.channelModel[0] measuredSinrDl:vector:stddev 0
scalar SingleCell_D2D.ueD2DRx[4].cellularNic.channelModel[0] measuredSinrDl:vector:min 77.416777528306952
scalar SingleCell_D2D.ueD2DRx[4].cellularNic.channelModel[0] measuredSinrDl:vector:max 77.416777528306952
scalar SingleCell_D2D.ueD2DRx[4].cellularNic.channelModel[0] measuredSinrDl:vector:starttime 0.002
scalar SingleCell_D2D.ueD2DRx[4].cellularNic.channelModel[0] measuredSinrDl:vector:endtime 5
scalar SingleCell_D2D.ueD2DRx[4].cellularNic.channelModel[0] measuredSinrUl:vector:count 834
scalar SingleCell_D2D.ueD2DRx[4].cellularNic.channelModel[0] measuredSinrUl:vector:sum 45063.975813350451
scalar SingleCell_D2D.ueD2DRx[4].cellularNic.channelModel[0] measuredSinrUl:vector:sumweights 834
scalar SingleCell_D2D.ueD2DRx[4].cellularNic.channelModel[0] measuredSinrUl:vector:mean 54.033544140707974
scalar SingleCell_D2D.ueD2DRx[4].cellularNic.channelModel[0] measuredSinrUl:vector:stddev 0
scalar SingleCell_D2D.ueD2DRx[4].cellularNic.channelModel[0] measuredSinrUl:vector:min 54.033544140708536
scalar SingleCell_D2D.ueD2DRx[4].cellularNic.channelModel[0] measuredSinrUl:vector:max 54.033544140708536
scalar SingleCell_D2D.ueD2DRx[4].cellularNic.channelModel[0] measuredSinrUl:vector:starttime 0.002
scalar SingleCell_D2D.ueD2DRx[4].cellularNic.channelModel[0] measuredSinrUl:vector:endtime 5
scalar SingleCell_D2D.ueD2DRx[4].cellularNic packetDropInterfaceDown:vector(packetBytes):count 0
scalar SingleCell_D2D.ueD2DRx[4].cellularNic packetDropInterfaceDown:vector(packetBytes):sum 0
scalar SingleCell_D2D.ueD2DRx[4].cellularNic packetDropInterfaceDown:vector(packetBytes):sumweights 0
scalar SingleCell_D2D.ueD2DRx[4].cellularNic packetDropInterfaceDown:vector(packetBytes):mean -nan
scalar SingleCell_D2D.ueD2DRx[4].cellularNic packetDropInterfaceDown:vector(packetBytes):stddev nan
scalar SingleCell_D2D.ueD2DRx[4].cellularNic packetDropInterfaceDown:vector(packetBytes):min inf
scalar SingleCell_D2D.ueD2DRx[4].cellularNic packetDropInterfaceDown:vector(packetBytes):max -inf
scalar SingleCell_D2D.ueD2DRx[4].cellularNic packetDropInterfaceDown:vector(packetBytes):starttime nan
scalar SingleCell_D2D.ueD2DRx[4].cellularNic packetDropInterfaceDown:vector(packetBytes):endtime nan
scalar SingleCell_D2D.ueD2DRx[4].cellularNic packetDropNoCarrier:vector(packetBytes):count 0
scalar SingleCell_D2D.ueD2DRx[4].cellularNic packetDropNoCarrier:vector(packetBytes):sum 0
scalar SingleCell_D2D.ueD2DRx[4].cellularNic packetDropNoCarrier:vector(packetBytes):sumweights 0
scalar SingleCell_D2D.ueD2DRx[4].cellularNic packetDropNoCarrier:vector(packetBytes):mean -nan
scalar SingleCell_D2D.ueD2DRx[4].cellularNic packetDropNoCarrier:vector(packetBytes):stddev nan
scalar SingleCell_D2D.ueD2DRx[4].cellularNic packetDropNoCarrier:vector(packetBytes):min inf
scalar SingleCell_D2D.ueD2DRx[4].cellularNic packetDropNoCarrier:vector(packetBytes):max -inf
scalar SingleCell_D2D.ueD2DRx[4].cellularNic packetDropNoCarrier:vector(packetBytes):starttime nan
scalar SingleCell_D2D.ueD2DRx[4].cellularNic packetDropNoCarrier:vector(packetBytes):endtime nan
scalar SingleCell_D2D.ueD2DRx[4].encap encapPk:vector(packetBytes):count 0
scalar SingleCell_D2D.ueD2DRx[4].encap encapPk:vector(packetBytes):sum 0
scalar SingleCell_D2D.ueD2DRx[4].encap encapPk:vector(packetBytes):sumweights 0
scalar SingleCell_D2D.ueD2DRx[4].encap encapPk:vector(packetBytes):mean -nan
scalar SingleCell_D2D.ueD2DRx[4].encap encapPk:vector(packetBytes):stddev nan
scalar SingleCell_D2D.ueD2DRx[4].encap encapPk:vector(packetBytes):min inf
scalar SingleCell_D2D.ueD2DRx[4].encap encapPk:vector(packetBytes):max -inf
scalar SingleCell_D2D.ueD2DRx[4].encap encapPk:vector(packetBytes):starttime nan
scalar SingleCell_D2D.ueD2DRx[4].encap encapPk:vector(packetBytes):endtime nan
scalar SingleCell_D2D.ueD2DRx[4].encap decapPk:vector(packetBytes):count 0
scalar SingleCell_D2D.ueD2DRx[4].encap decapPk:vector(packetBytes):sum 0
scalar SingleCell_D2D.ueD2DRx[4].encap decapPk:vector(packetBytes):sumweights 0
scalar SingleCell_D2D.ueD2DRx[4].encap decapPk:vector(packetBytes):mean -nan
scalar SingleCell_D2D.ueD2DRx[4].encap decapPk:vector(packetBytes):stddev nan
scalar SingleCell_D2D.ueD2DRx[4].encap decapPk:vector(packetBytes):min inf
scalar SingleCell_D2D.ueD2DRx[4].encap decapPk:vector(packetBytes):max -inf
scalar SingleCell_D2D.ueD2DRx[4].encap decapPk:vector(packetBytes):starttime nan
scalar SingleCell_D2D.ueD2DRx[4].encap decapPk:vector(packetBytes):endtime nan
scalar SingleCell_D2D.ueD2DRx[4].encap pauseSent:vector:count 0
scalar SingleCell_D2D.ueD2DRx[4].encap pauseSent:vector:sum 0
scalar SingleCell_D2D.ueD2DRx[4].encap pauseSent:vector:sumweights 0
scalar SingleCell_D2D.ueD2DRx[4].encap pauseSent:vector:mean -nan
scalar SingleCell_D2D.ueD2DRx[4].encap pauseSent:vector:stddev nan
scalar SingleCell_D2D.ueD2DRx[4].encap pauseSent:vector:min inf
scalar SingleCell_D2D.ueD2DRx[4].encap pauseSent:vector:max -inf
scalar SingleCell_D2D.ueD2DRx[4].encap pauseSent:vector:starttime nan
scalar SingleCell_D2D.ueD2DRx[4].encap pauseSent:vector:endtime nan
scalar SingleCell_D2D.ueD2DRx[4].ipv4.ip packetDropAddressResolutionFailed:vector(packetBytes):count 0
scalar SingleCell_D2D.ueD2DRx[4].ipv4.ip packetDropAddressResolutionFailed:vector(packetBytes):sum 0
scalar SingleCell_D2D.ueD2DRx[4].ipv4.ip packetDropAddressResolutionFailed:vector(packetBytes):sumweights 0
scalar SingleCell_D2D.ueD2DRx[4].ipv4.ip packetDropAddressResolutionFailed:vector(packetBytes):mean -nan
scalar SingleCell_D2D.ueD2DRx[4].ipv4.ip packetDropAddressResolutionFailed:vector(packetBytes):stddev nan
scalar SingleCell_D2D.ueD2DRx[4].ipv4.ip packetDropAddressResolutionFailed:vector(packetBytes):min inf
scalar SingleCell_D2D.ueD2DRx[4].ipv4.ip packetDropAddressResolutionFailed:vector(packetBytes):max -inf
scalar SingleCell_D2D.ueD2DRx[4].ipv4.ip packetDropAddressResolutionFailed:vector(packetBytes):starttime nan
scalar SingleCell_D2D.ueD2DRx[4].ipv4.ip packetDropAddressResolutionFailed:vector(packetBytes):endtime nan
scalar SingleCell_D2D.ueD2DRx[4].ipv4.ip packetDropHopLimitReached:vector(packetBytes):count 0
scalar SingleCell_D2D.ueD2DRx[4].ipv4.ip packetDropHopLimitReached:vector(packetBytes):sum 0
scalar SingleCell_D2D.ueD2DRx[4].ipv4.ip packetDropHopLimitReached:vector(packetBytes):sumweights 0
scalar SingleCell_D2D.ueD2DRx[4].ipv4.ip packetDropHopLimitReached:vector(packetBytes):mean -nan
scalar SingleCell_D2D.ueD2DRx[4].ipv4.ip packetDropHopLimitReached:vector(packetBytes):stddev nan
scalar SingleCell_D2D.ueD2DRx[4].ipv4.ip packetDropHopLimitReached:vector(packetBytes):min inf
scalar SingleCell_D2D.ueD2DRx[4].ipv4.ip packetDropHopLimitReached:vector(packetBytes):max -inf
scalar SingleCell_D2D.ueD2DRx[4].ipv4.ip packetDropHopLimitReached:vector(packetBytes):starttime nan
scalar SingleCell_D2D.ueD2DRx[4].ipv4.ip packetDropHopLimitReached:vector(packetBytes):endtime nan
scalar SingleCell_D2D.ueD2DRx[4].ipv4.ip packetDropForwardingDisabled:vector(packetBytes):count 0
scalar SingleCell_D2D.ueD2DRx[4].ipv4.ip packetDropForwardingDisabled:vector(packetBytes):sum 0
scalar SingleCell_D2D.ueD2DRx[4].ipv4.ip packetDropForwardingDisabled:vector(packetBytes):sumweights 0
scalar SingleCell_D2D.ueD2DRx[4].ipv4.ip packetDropForwardingDisabled:vector(packetBytes):mean -nan
scalar SingleCell_D2D.ueD2DRx[4].ipv4.ip packetDropForwardingDisabled:vector(packetBytes):stddev nan
scalar SingleCell_D2D.ueD2DRx[4].ipv4.ip packetDropForwardingDisabled:vector(packetBytes):min inf
scalar SingleCell_D2D.ueD2DRx[4].ipv4.ip packetDropForwardingDisabled:vector(packetBytes):max -inf
scalar SingleCell_D2D.ueD2DRx[4].ipv4.ip packetDropForwardingDisabled:vector(packetBytes):starttime nan
scalar SingleCell_D2D.ueD2DRx[4].ipv4.ip packetDropForwardingDisabled:vector(packetBytes):endtime nan
scalar SingleCell_D2D.ueD2DRx[4].ipv4.ip packetDropNoInterfaceFound:vector(packetBytes):count 0
scalar SingleCell_D2D.ueD2DRx[4].ipv4.ip packetDropNoInterfaceFound:vector(packetBytes):sum 0
scalar SingleCell_D2D.ueD2DRx[4].ipv4.ip packetDropNoInterfaceFound:vector(packetBytes):sumweights 0
scalar SingleCell_D2D.ueD2DRx[4].ipv4.ip packetDropNoInterfaceFound:vector(packetBytes):mean -nan
scalar SingleCell_D2D.ueD2DRx[4].ipv4.ip packetDropNoInterfaceFound:vector(packetBytes):stddev nan
scalar SingleCell_D2D.ueD2DRx[4].ipv4.ip packetDropNoInterfaceFound:vector(packetBytes):min inf
scalar SingleCell_D2D.ueD2DRx[4].ipv4.ip packetDropNoInterfaceFound:vector(packetBytes):max -inf
scalar SingleCell_D2D.ueD2DRx[4].ipv4.ip packetDropNoInterfaceFound:vector(packetBytes):starttime nan
scalar SingleCell_D2D.ueD2DRx[4].ipv4.ip packetDropNoInterfaceFound:vector(packetBytes):endtime nan
scalar SingleCell_D2D.ueD2DRx[4].ipv4.ip packetDropNoRouteFound:vector(packetBytes):count 0
scalar SingleCell_D2D.ueD2DRx[4].ipv4.ip packetDropNoRouteFound:vector(packetBytes):sum 0
scalar SingleCell_D2D.ueD2DRx[4].ipv4.ip packetDropNoRouteFound:vector(packetBytes):sumweights 0
scalar SingleCell_D2D.ueD2DRx[4].ipv4.ip packetDropNoRouteFound:vector(packetBytes):mean -nan
scalar SingleCell_D2D.ueD2DRx[4].ipv4.ip packetDropNoRouteFound:vector(packetBytes):stddev nan
scalar SingleCell_D2D.ueD2DRx[4].ipv4.ip packetDropNoRouteFound:vector(packetBytes):min inf
scalar SingleCell_D2D.ueD2DRx[4].ipv4.ip packetDropNoRouteFound:vector(packetBytes):max -inf
scalar SingleCell_D2D.ueD2DRx[4].ipv4.ip packetDropNoRouteFound:vector(packetBytes):starttime nan
scalar SingleCell_D2D.ueD2DRx[4].ipv4.ip packetDropNoRouteFound:vector(packetBytes):endtime nan
scalar SingleCell_D2D.ueD2DRx[4].ipv4.ip packetDropUndefined:vector(packetBytes):count 0
scalar SingleCell_D2D.ueD2DRx[4].ipv4.ip packetDropUndefined:vector(packetBytes):sum 0
scalar SingleCell_D2D.ueD2DRx[4].ipv4.ip packetDropUndefined:vector(packetBytes):sumweights 0
scalar SingleCell_D2D.ueD2DRx[4].ipv4.ip packetDropUndefined:vector(packetBytes):mean -nan
scalar SingleCell_D2D.ueD2DRx[4].ipv4.ip packetDropUndefined:vector(packetBytes):stddev nan
scalar SingleCell_D2D.ueD2DRx[4].ipv4.ip packetDropUndefined:vector(packetBytes):min inf
scalar SingleCell_D2D.ueD2DRx[4].ipv4.ip packetDropUndefined:vector(packetBytes):max -inf
scalar SingleCell_D2D.ueD2DRx[4].ipv4.ip packetDropUndefined:vector(packetBytes):starttime nan
scalar SingleCell_D2D.ueD2DRx[4].ipv4.ip packetDropUndefined:vector(packetBytes):endtime nan
scalar SingleCell_D2D.ueD2DRx[4].ipv4.arp arpRequestSent:vector(packetBytes):count 0
scalar SingleCell_D2D.ueD2DRx[4].ipv4.arp arpRequestSent:vector(packetBytes):sum 0
scalar SingleCell_D2D.ueD2DRx[4].ipv4.arp arpRequestSent:vector(packetBytes):sumweights 0
scalar SingleCell_D2D.ueD2DRx[4].ipv4.arp arpRequestSent:vector(packetBytes):mean -nan
scalar SingleCell_D2D.ueD2DRx[4].ipv4.arp arpRequestSent:vector(packetBytes):stddev nan
scalar SingleCell_D2D.ueD2DRx[4].ipv4.arp arpRequestSent:vector(packetBytes):min inf
scalar SingleCell_D2D.ueD2DRx[4].ipv4.arp arpRequestSent:vector(packetBytes):max -inf
scalar SingleCell_D2D.ueD2DRx[4].ipv4.arp arpRequestSent:vector(packetBytes):starttime nan
scalar SingleCell_D2D.ueD2DRx[4].ipv4.arp arpRequestSent:vector(packetBytes):endtime nan
scalar SingleCell_D2D.ueD2DRx[4].ipv4.arp arpReplySent:vector(packetBytes):count 0
scalar SingleCell_D2D.ueD2DRx[4].ipv4.arp arpReplySent:vector(packetBytes):sum 0
scalar SingleCell_D2D.ueD2DRx[4].ipv4.arp arpReplySent:vector(packetBytes):sumweights 0
scalar SingleCell_D2D.ueD2DRx[4].ipv4.arp arpReplySent:vector(packetBytes):mean -nan
scalar SingleCell_D2D.ueD2DRx[4].ipv4.arp arpReplySent:vector(packetBytes):stddev nan
scalar SingleCell_D2D.ueD2DRx[4].ipv4.arp arpReplySent:vector(packetBytes):min inf
scalar SingleCell_D2D.ueD2DRx[4].ipv4.arp arpReplySent:vector(packetBytes):max -inf
scalar SingleCell_D2D.ueD2DRx[4].ipv4.arp arpReplySent:vector(packetBytes):starttime nan
scalar SingleCell_D2D.ueD2DRx[4].ipv4.arp arpReplySent:vector(packetBytes):endtime nan
scalar SingleCell_D2D.ueD2DRx[4].udp packetSent:vector(packetBytes):count 0
scalar SingleCell_D2D.ueD2DRx[4].udp packetSent:vector(packetBytes):sum 0
scalar SingleCell_D2D.ueD2DRx[4].udp packetSent:vector(packetBytes):sumweights 0
scalar SingleCell_D2D.ueD2DRx[4].udp packetSent:vector(packetBytes):mean -nan
scalar SingleCell_D2D.ueD2DRx[4].udp packetSent:vector(packetBytes):stddev nan
scalar SingleCell_D2D.ueD2DRx[4].udp packetSent:vector(packetBytes):min inf
scalar SingleCell_D2D.ueD2DRx[4].udp packetSent:vector(packetBytes):max -inf
scalar SingleCell_D2D.ueD2DRx[4].udp packetSent:vector(packetBytes):starttime nan
scalar SingleCell_D2D.ueD2DRx[4].udp packetSent:vector(packetBytes):endtime nan
scalar SingleCell_D2D.ueD2DRx[4].udp packetReceived:vector(packetBytes):count 157
scalar SingleCell_D2D.ueD2DRx[4].udp packetReceived:vector(packetBytes):sum 7536
scalar SingleCell_D2D.ueD2DRx[4].udp packetReceived:vector(packetBytes):sumweights 157
scalar SingleCell_D2D.ueD2DRx[4].udp packetReceived:vector(packetBytes):mean 48
scalar SingleCell_D2D.ueD2DRx[4].udp packetReceived:vector(packetBytes):stddev 0
scalar SingleCell_D2D.ueD2DRx[4].udp packetReceived:vector(packetBytes):min 48
scalar SingleCell_D2D.ueD2DRx[4].udp packetReceived:vector(packetBytes):max 48
scalar SingleCell_D2D.ueD2DRx[4].udp packetReceived:vector(packetBytes):starttime 0.021999999999999999
scalar SingleCell_D2D.ueD2DRx[4].udp packetReceived:vector(packetBytes):endtime 4.9910000000000005
scalar SingleCell_D2D.ueD2DRx[4].udp passedUpPk:vector(count):count 158
scalar SingleCell_D2D.ueD2DRx[4].udp passedUpPk:vector(count):sum 12403
scalar SingleCell_D2D.ueD2DRx[4].udp passedUpPk:vector(count):sumweights 158
scalar SingleCell_D2D.ueD2DRx[4].udp passedUpPk:vector(count):mean 78.5
scalar SingleCell_D2D.ueD2DRx[4].udp passedUpPk:vector(count):stddev 45.754781170933384
scalar SingleCell_D2D.ueD2DRx[4].udp passedUpPk:vector(count):min 0
scalar SingleCell_D2D.ueD2DRx[4].udp passedUpPk:vector(count):max 157
scalar SingleCell_D2D.ueD2DRx[4].udp passedUpPk:vector(count):starttime 0
scalar SingleCell_D2D.ueD2DRx[4].udp passedUpPk:vector(count):endtime 4.9910000000000005
scalar SingleCell_D2D.ueD2DRx[4].udp droppedPkWrongPort:vector(count):count 1
scalar SingleCell_D2D.ueD2DRx[4].udp droppedPkWrongPort:vector(count):sum 0
scalar SingleCell_D2D.ueD2DRx[4].udp droppedPkWrongPort:vector(count):sumweights 1
scalar SingleCell_D2D.ueD2DRx[4].udp droppedPkWrongPort:vector(count):mean 0
scalar SingleCell_D2D.ueD2DRx[4].udp droppedPkWrongPort:vector(count):stddev nan
scalar SingleCell_D2D.ueD2DRx[4].udp droppedPkWrongPort:vector(count):min 0
scalar SingleCell_D2D.ueD2DRx[4].udp droppedPkWrongPort:vector(count):max 0
scalar SingleCell_D2D.ueD2DRx[4].udp droppedPkWrongPort:vector(count):starttime 0
scalar SingleCell_D2D.ueD2DRx[4].udp droppedPkWrongPort:vector(count):endtime 0
scalar SingleCell_D2D.ueD2DRx[4].udp droppedPkBadChecksum:vector(count):count 1
scalar SingleCell_D2D.ueD2DRx[4].udp droppedPkBadChecksum:vector(count):sum 0
scalar SingleCell_D2D.ueD2DRx[4].udp droppedPkBadChecksum:vector(count):sumweights 1
scalar SingleCell_D2D.ueD2DRx[4].udp droppedPkBadChecksum:vector(count):mean 0
scalar SingleCell_D2D.ueD2DRx[4].udp droppedPkBadChecksum:vector(count):stddev nan
scalar SingleCell_D2D.ueD2DRx[4].udp droppedPkBadChecksum:vector(count):min 0
scalar SingleCell_D2D.ueD2DRx[4].udp droppedPkBadChecksum:vector(count):max 0
scalar SingleCell_D2D.ueD2DRx[4].udp droppedPkBadChecksum:vector(count):starttime 0
scalar SingleCell_D2D.ueD2DRx[4].udp droppedPkBadChecksum:vector(count):endtime 0
scalar SingleCell_D2D.ueD2DRx[4].app[0] voipFrameDelay:vector:count 157
scalar SingleCell_D2D.ueD2DRx[4].app[0] voipFrameDelay:vector:sum 2.1325247437979931
scalar SingleCell_D2D.ueD2DRx[4].app[0] voipFrameDelay:vector:sumweights 157
scalar SingleCell_D2D.ueD2DRx[4].app[0] voipFrameDelay:vector:mean 0.013582960151579573
scalar SingleCell_D2D.ueD2DRx[4].app[0] voipFrameDelay:vector:stddev 0.00025666995999536668
scalar SingleCell_D2D.ueD2DRx[4].app[0] voipFrameDelay:vector:min 0.013246652107999999
scalar SingleCell_D2D.ueD2DRx[4].app[0] voipFrameDelay:vector:max 0.013874901735
scalar SingleCell_D2D.ueD2DRx[4].app[0] voipFrameDelay:vector:starttime 0.021999999999999999
scalar SingleCell_D2D.ueD2DRx[4].app[0] voipFrameDelay:vector:endtime 4.9910000000000005
scalar SingleCell_D2D.ueD2DRx[4].app[0] voipReceivedThroughput:vector:count 157
scalar SingleCell_D2D.ueD2DRx[4].app[0] voipReceivedThroughput:vector:sum 232534.94100139037
scalar SingleCell_D2D.ueD2DRx[4].app[0] voipReceivedThroughput:vector:sumweights 157
scalar SingleCell_D2D.ueD2DRx[4].app[0] voipReceivedThroughput:vector:mean 1481.1142738942062
scalar SingleCell_D2D.ueD2DRx[4].app[0] voipReceivedThroughput:vector:stddev 358.38231922480554
scalar SingleCell_D2D.ueD2DRx[4].app[0] voipReceivedThroughput:vector:min 1014.3476810143477
scalar SingleCell_D2D.ueD2DRx[4].app[0] voipReceivedThroughput:vector:max 1995.0124688279304
scalar SingleCell_D2D.ueD2DRx[4].app[0] voipReceivedThroughput:vector:starttime 0.021999999999999999
scalar SingleCell_D2D.ueD2DRx[4].app[0] voipReceivedThroughput:vector:endtime 4.9910000000000005

