version 3
run SinglePair-modeSwitching-TCP-0-20260712-14:05:25-20335
attr configname SinglePair-modeSwitching-TCP
attr datetime 20260712-14:05:25
attr datetimef 20260712-140525
attr experiment SinglePair-modeSwitching-TCP
attr inifile omnetpp.ini
attr iterationvars ""
attr iterationvarsd ""
attr iterationvarsf ""
attr measurement ""
attr network simu5g.simulations.lte.networks.SingleCell_D2D
attr processid 20335
attr repetition 0
attr replication #0
attr resultdir results
attr runnumber 0
attr seedset 0
config **.param-recording false
config image-path /home/andras/projects/Simu5G-fork/simu5g-fork/images
config output-scalar-file results/omnetpp.ini-SinglePair-modeSwitching-TCP-#0.sca
config output-scalar-precision 17
config output-vector-file results/omnetpp.ini-SinglePair-modeSwitching-TCP-#0.vec
config output-vector-precision 17
config record-eventlog false
config sim-time-limit 5s
config extends SinglePair-modeSwitching
config *.ueD2D*[0].numApps 1
config *.ueD2DTx[0].app[0].typename TcpSessionApp
config *.ueD2DTx[0].app[0].connectPort 1000
config *.ueD2DTx[0].app[0].localPort 1000
config *.ueD2DTx[0].app[0].sendBytes 1GiB
config *.ueD2DTx[0].app[0].active true
config *.ueD2DTx[0].app[0].tOpen uniform(0.010s,0.1s)
config *.ueD2DTx[0].app[0].tSend uniform(0.15s,0.5s)
config *.ueD2DTx[0].app[0].connectAddress "\"ueD2DRx[0]\""
config *.ueD2DTx[0].app[0].localAddress "\"ueD2DTx[0]\""
config *.ueD2DRx[0].app[0].typename TcpSinkApp
config *.ueD2DRx[0].app[0].localPort 1000
config **.app[*].tClose -1s
config network simu5g.simulations.lte.networks.SingleCell_D2D
config sim-time-limit 50s
config warmup-period 0s
config **.cellularNic.channelModel[0].fading false
config **.cellularNic.channelModel[0].shadowing false
config *.eNB.mobility.initFromDisplayString false
config *.eNB.mobility.initialX 300m
config *.eNB.mobility.initialY 300m
config *.numUeCell 0
config *.numUeD2DTx 1
config *.numUeD2DRx 1
config *.ue*[0].servingNodeId 1
config *.ue*[0].mobility.initFromDisplayString false
config *.ue*[0].mobility.typename LinearMobility
config *.ue*[0].mobility.speed 10mps
config *.ueD2DTx[0].mobility.initialX 290m
config *.ueD2DTx[0].mobility.initialY 400m
config *.ueD2DTx[0].mobility.constraintAreaMinX 200m
config *.ueD2DTx[0].mobility.constraintAreaMaxX 290m
config *.ueD2DTx[0].mobility.initialMovementHeading 180deg
config *.ueD2DRx[0].mobility.initialX 310m
config *.ueD2DRx[0].mobility.initialY 400m
config *.ueD2DRx[0].mobility.constraintAreaMinX 310m
config *.ueD2DRx[0].mobility.constraintAreaMaxX 400m
config *.ueD2DRx[0].mobility.initialMovementHeading 0deg
config *.eNB*.cellularNic.typename LteNicEnbD2D
config *.ueD2D*[*].cellularNic.typename LteNicUeD2D
config **.amcMode "\"D2D\""
config *.ueD2D*[*].cellularNic.d2dInitialMode true
config **.usePreconfiguredTxParams false
config *.eNB.cellularNic.phy.enableD2DCqiReporting true
config *.eNB.cellularNic.d2dModeSelection.typename D2DModeSelectionBestCqi
config sim-time-limit 5s
config warmup-period 0s
config repeat 3
config **.routingRecorder.enabled false
config output-scalar-file results/SinglePair-modeSwitching-TCP/0.sca
config output-vector-file results/SinglePair-modeSwitching-TCP/0.vec
config seed-set 0
config **.vector-recording true
config **.mobility.constraintAreaMinZ 0m
config **.mobility.constraintAreaMaxZ 0m
config **.numBands 50
config *.configurator.config "xmldoc(\"./demo.xml\")"

scalar SingleCell_D2D.server.lo[0].lo rcvdPkFromHl:count 0
scalar SingleCell_D2D.server.lo[0].lo rcvdPkFromHl:sum(packetBytes) 0
scalar SingleCell_D2D.server.lo[0].lo passedUpPk:count 0
scalar SingleCell_D2D.server.lo[0].lo passedUpPk:sum(packetBytes) 0
scalar SingleCell_D2D.server.lo[0] packetDropInterfaceDown:count 0
scalar SingleCell_D2D.server.lo[0] packetDropInterfaceDown:sum(packetBytes) 0
scalar SingleCell_D2D.server.lo[0] packetDropNoCarrier:count 0
scalar SingleCell_D2D.server.lo[0] packetDropNoCarrier:sum(packetBytes) 0
scalar SingleCell_D2D.server.ppp[0].queue queueLength:last 0
scalar SingleCell_D2D.server.ppp[0].queue queueLength:max 0
scalar SingleCell_D2D.server.ppp[0].queue queueLength:timeavg 0
scalar SingleCell_D2D.server.ppp[0].queue queueBitLength:last 0
scalar SingleCell_D2D.server.ppp[0].queue queueBitLength:max 0
scalar SingleCell_D2D.server.ppp[0].queue queueBitLength:timeavg 0
scalar SingleCell_D2D.server.ppp[0].queue outgoingPackets:count 0
scalar SingleCell_D2D.server.ppp[0].queue outgoingPacketLengths:sum 0
scalar SingleCell_D2D.server.ppp[0].queue incomingPackets:count 0
scalar SingleCell_D2D.server.ppp[0].queue incomingPacketLengths:sum 0
scalar SingleCell_D2D.server.ppp[0].queue droppedPacketsQueueOverflow:count 0
scalar SingleCell_D2D.server.ppp[0].queue droppedPacketLengthsQueueOverflow:sum 0
scalar SingleCell_D2D.server.ppp[0].ppp transmissionState:timeavg 0
scalar SingleCell_D2D.server.ppp[0].ppp rxPkOk:count 0
scalar SingleCell_D2D.server.ppp[0].ppp rxPkOk:sum(packetBytes) 0
scalar SingleCell_D2D.server.ppp[0].ppp txPk:count 0
scalar SingleCell_D2D.server.ppp[0].ppp txPk:sum(packetBytes) 0
scalar SingleCell_D2D.server.ppp[0].ppp rcvdPkFromHl:count 0
scalar SingleCell_D2D.server.ppp[0].ppp rcvdPkFromHl:sum(packetBytes) 0
scalar SingleCell_D2D.server.ppp[0].ppp passedUpPk:count 0
scalar SingleCell_D2D.server.ppp[0].ppp passedUpPk:sum(packetBytes) 0
scalar SingleCell_D2D.server.ppp[0].ppp packetDropIncorrectlyReceived:count 0
scalar SingleCell_D2D.server.ppp[0].ppp packetDropIncorrectlyReceived:sum(packetBytes) 0
scalar SingleCell_D2D.server.ppp[0].ppp packetDropInterfaceDown:count 0
scalar SingleCell_D2D.server.ppp[0].ppp packetDropInterfaceDown:sum(packetBytes) 0
scalar SingleCell_D2D.server.ppp[0] packetDropInterfaceDown:count 0
scalar SingleCell_D2D.server.ppp[0] packetDropInterfaceDown:sum(packetBytes) 0
scalar SingleCell_D2D.server.ppp[0] packetDropNoCarrier:count 0
scalar SingleCell_D2D.server.ppp[0] packetDropNoCarrier:sum(packetBytes) 0
scalar SingleCell_D2D.server.ipv4.ip packetDropAddressResolutionFailed:count 0
scalar SingleCell_D2D.server.ipv4.ip packetDropAddressResolutionFailed:sum(packetBytes) 0
scalar SingleCell_D2D.server.ipv4.ip packetDropHopLimitReached:count 0
scalar SingleCell_D2D.server.ipv4.ip packetDropHopLimitReached:sum(packetBytes) 0
scalar SingleCell_D2D.server.ipv4.ip packetDropForwardingDisabled:count 0
scalar SingleCell_D2D.server.ipv4.ip packetDropForwardingDisabled:sum(packetBytes) 0
scalar SingleCell_D2D.server.ipv4.ip packetDropNoInterfaceFound:count 0
scalar SingleCell_D2D.server.ipv4.ip packetDropNoInterfaceFound:sum(packetBytes) 0
scalar SingleCell_D2D.server.ipv4.ip packetDropNoRouteFound:count 0
scalar SingleCell_D2D.server.ipv4.ip packetDropNoRouteFound:sum(packetBytes) 0
scalar SingleCell_D2D.server.ipv4.ip packetDropUndefined:count 0
scalar SingleCell_D2D.server.ipv4.ip packetDropUndefined:sum(packetBytes) 0
scalar SingleCell_D2D.server.ipv4.arp arpResolutionFailed:count 0
scalar SingleCell_D2D.server.ipv4.arp arpResolutionCompleted:count 0
scalar SingleCell_D2D.server.ipv4.arp arpResolutionInitiated:count 0
scalar SingleCell_D2D.server.ipv4.arp arpReplySent:count 0
scalar SingleCell_D2D.server.ipv4.arp arpReplySent:sum(packetBytes) 0
scalar SingleCell_D2D.server.ipv4.arp arpRequestSent:count 0
scalar SingleCell_D2D.server.ipv4.arp arpRequestSent:sum(packetBytes) 0
scalar SingleCell_D2D.server.udp packetReceived:count 0
scalar SingleCell_D2D.server.udp packetReceived:sum(packetBytes) 0
scalar SingleCell_D2D.server.udp packetSent:count 0
scalar SingleCell_D2D.server.udp packetSent:sum(packetBytes) 0
scalar SingleCell_D2D.server.udp passedUpPk:count 0
scalar SingleCell_D2D.server.udp droppedPkWrongPort:count 0
scalar SingleCell_D2D.server.udp droppedPkBadChecksum:count 0
scalar SingleCell_D2D.router.lo[0].lo rcvdPkFromHl:count 0
scalar SingleCell_D2D.router.lo[0].lo rcvdPkFromHl:sum(packetBytes) 0
scalar SingleCell_D2D.router.lo[0].lo passedUpPk:count 0
scalar SingleCell_D2D.router.lo[0].lo passedUpPk:sum(packetBytes) 0
scalar SingleCell_D2D.router.lo[0] packetDropInterfaceDown:count 0
scalar SingleCell_D2D.router.lo[0] packetDropInterfaceDown:sum(packetBytes) 0
scalar SingleCell_D2D.router.lo[0] packetDropNoCarrier:count 0
scalar SingleCell_D2D.router.lo[0] packetDropNoCarrier:sum(packetBytes) 0
scalar SingleCell_D2D.router.ppp[0].queue queueLength:last 0
scalar SingleCell_D2D.router.ppp[0].queue queueLength:max 0
scalar SingleCell_D2D.router.ppp[0].queue queueLength:timeavg 0
scalar SingleCell_D2D.router.ppp[0].queue queueBitLength:last 0
scalar SingleCell_D2D.router.ppp[0].queue queueBitLength:max 0
scalar SingleCell_D2D.router.ppp[0].queue queueBitLength:timeavg 0
scalar SingleCell_D2D.router.ppp[0].queue outgoingPackets:count 0
scalar SingleCell_D2D.router.ppp[0].queue outgoingPacketLengths:sum 0
scalar SingleCell_D2D.router.ppp[0].queue incomingPackets:count 0
scalar SingleCell_D2D.router.ppp[0].queue incomingPacketLengths:sum 0
scalar SingleCell_D2D.router.ppp[0].queue droppedPacketsQueueOverflow:count 0
scalar SingleCell_D2D.router.ppp[0].queue droppedPacketLengthsQueueOverflow:sum 0
scalar SingleCell_D2D.router.ppp[0].ppp transmissionState:timeavg 0
scalar SingleCell_D2D.router.ppp[0].ppp rxPkOk:count 0
scalar SingleCell_D2D.router.ppp[0].ppp rxPkOk:sum(packetBytes) 0
scalar SingleCell_D2D.router.ppp[0].ppp txPk:count 0
scalar SingleCell_D2D.router.ppp[0].ppp txPk:sum(packetBytes) 0
scalar SingleCell_D2D.router.ppp[0].ppp rcvdPkFromHl:count 0
scalar SingleCell_D2D.router.ppp[0].ppp rcvdPkFromHl:sum(packetBytes) 0
scalar SingleCell_D2D.router.ppp[0].ppp passedUpPk:count 0
scalar SingleCell_D2D.router.ppp[0].ppp passedUpPk:sum(packetBytes) 0
scalar SingleCell_D2D.router.ppp[0].ppp packetDropIncorrectlyReceived:count 0
scalar SingleCell_D2D.router.ppp[0].ppp packetDropIncorrectlyReceived:sum(packetBytes) 0
scalar SingleCell_D2D.router.ppp[0].ppp packetDropInterfaceDown:count 0
scalar SingleCell_D2D.router.ppp[0].ppp packetDropInterfaceDown:sum(packetBytes) 0
scalar SingleCell_D2D.router.ppp[0] packetDropInterfaceDown:count 0
scalar SingleCell_D2D.router.ppp[0] packetDropInterfaceDown:sum(packetBytes) 0
scalar SingleCell_D2D.router.ppp[0] packetDropNoCarrier:count 0
scalar SingleCell_D2D.router.ppp[0] packetDropNoCarrier:sum(packetBytes) 0
scalar SingleCell_D2D.router.ppp[1].queue queueLength:last 0
scalar SingleCell_D2D.router.ppp[1].queue queueLength:max 0
scalar SingleCell_D2D.router.ppp[1].queue queueLength:timeavg 0
scalar SingleCell_D2D.router.ppp[1].queue queueBitLength:last 0
scalar SingleCell_D2D.router.ppp[1].queue queueBitLength:max 0
scalar SingleCell_D2D.router.ppp[1].queue queueBitLength:timeavg 0
scalar SingleCell_D2D.router.ppp[1].queue outgoingPackets:count 0
scalar SingleCell_D2D.router.ppp[1].queue outgoingPacketLengths:sum 0
scalar SingleCell_D2D.router.ppp[1].queue incomingPackets:count 0
scalar SingleCell_D2D.router.ppp[1].queue incomingPacketLengths:sum 0
scalar SingleCell_D2D.router.ppp[1].queue droppedPacketsQueueOverflow:count 0
scalar SingleCell_D2D.router.ppp[1].queue droppedPacketLengthsQueueOverflow:sum 0
scalar SingleCell_D2D.router.ppp[1].ppp transmissionState:timeavg 0
scalar SingleCell_D2D.router.ppp[1].ppp rxPkOk:count 0
scalar SingleCell_D2D.router.ppp[1].ppp rxPkOk:sum(packetBytes) 0
scalar SingleCell_D2D.router.ppp[1].ppp txPk:count 0
scalar SingleCell_D2D.router.ppp[1].ppp txPk:sum(packetBytes) 0
scalar SingleCell_D2D.router.ppp[1].ppp rcvdPkFromHl:count 0
scalar SingleCell_D2D.router.ppp[1].ppp rcvdPkFromHl:sum(packetBytes) 0
scalar SingleCell_D2D.router.ppp[1].ppp passedUpPk:count 0
scalar SingleCell_D2D.router.ppp[1].ppp passedUpPk:sum(packetBytes) 0
scalar SingleCell_D2D.router.ppp[1].ppp packetDropIncorrectlyReceived:count 0
scalar SingleCell_D2D.router.ppp[1].ppp packetDropIncorrectlyReceived:sum(packetBytes) 0
scalar SingleCell_D2D.router.ppp[1].ppp packetDropInterfaceDown:count 0
scalar SingleCell_D2D.router.ppp[1].ppp packetDropInterfaceDown:sum(packetBytes) 0
scalar SingleCell_D2D.router.ppp[1] packetDropInterfaceDown:count 0
scalar SingleCell_D2D.router.ppp[1] packetDropInterfaceDown:sum(packetBytes) 0
scalar SingleCell_D2D.router.ppp[1] packetDropNoCarrier:count 0
scalar SingleCell_D2D.router.ppp[1] packetDropNoCarrier:sum(packetBytes) 0
scalar SingleCell_D2D.router.ipv4.ip packetDropAddressResolutionFailed:count 0
scalar SingleCell_D2D.router.ipv4.ip packetDropAddressResolutionFailed:sum(packetBytes) 0
scalar SingleCell_D2D.router.ipv4.ip packetDropHopLimitReached:count 0
scalar SingleCell_D2D.router.ipv4.ip packetDropHopLimitReached:sum(packetBytes) 0
scalar SingleCell_D2D.router.ipv4.ip packetDropForwardingDisabled:count 0
scalar SingleCell_D2D.router.ipv4.ip packetDropForwardingDisabled:sum(packetBytes) 0
scalar SingleCell_D2D.router.ipv4.ip packetDropNoInterfaceFound:count 0
scalar SingleCell_D2D.router.ipv4.ip packetDropNoInterfaceFound:sum(packetBytes) 0
scalar SingleCell_D2D.router.ipv4.ip packetDropNoRouteFound:count 0
scalar SingleCell_D2D.router.ipv4.ip packetDropNoRouteFound:sum(packetBytes) 0
scalar SingleCell_D2D.router.ipv4.ip packetDropUndefined:count 0
scalar SingleCell_D2D.router.ipv4.ip packetDropUndefined:sum(packetBytes) 0
scalar SingleCell_D2D.router.ipv4.arp arpResolutionFailed:count 0
scalar SingleCell_D2D.router.ipv4.arp arpResolutionCompleted:count 0
scalar SingleCell_D2D.router.ipv4.arp arpResolutionInitiated:count 0
scalar SingleCell_D2D.router.ipv4.arp arpReplySent:count 0
scalar SingleCell_D2D.router.ipv4.arp arpReplySent:sum(packetBytes) 0
scalar SingleCell_D2D.router.ipv4.arp arpRequestSent:count 0
scalar SingleCell_D2D.router.ipv4.arp arpRequestSent:sum(packetBytes) 0
scalar SingleCell_D2D.pgw.lo[0].lo rcvdPkFromHl:count 0
scalar SingleCell_D2D.pgw.lo[0].lo rcvdPkFromHl:sum(packetBytes) 0
scalar SingleCell_D2D.pgw.lo[0].lo passedUpPk:count 0
scalar SingleCell_D2D.pgw.lo[0].lo passedUpPk:sum(packetBytes) 0
scalar SingleCell_D2D.pgw.lo[0] packetDropInterfaceDown:count 0
scalar SingleCell_D2D.pgw.lo[0] packetDropInterfaceDown:sum(packetBytes) 0
scalar SingleCell_D2D.pgw.lo[0] packetDropNoCarrier:count 0
scalar SingleCell_D2D.pgw.lo[0] packetDropNoCarrier:sum(packetBytes) 0
scalar SingleCell_D2D.pgw.ppp[0].queue queueLength:last 0
scalar SingleCell_D2D.pgw.ppp[0].queue queueLength:max 0
scalar SingleCell_D2D.pgw.ppp[0].queue queueLength:timeavg 0
scalar SingleCell_D2D.pgw.ppp[0].queue queueBitLength:last 0
scalar SingleCell_D2D.pgw.ppp[0].queue queueBitLength:max 0
scalar SingleCell_D2D.pgw.ppp[0].queue queueBitLength:timeavg 0
scalar SingleCell_D2D.pgw.ppp[0].queue outgoingPackets:count 0
scalar SingleCell_D2D.pgw.ppp[0].queue outgoingPacketLengths:sum 0
scalar SingleCell_D2D.pgw.ppp[0].queue incomingPackets:count 0
scalar SingleCell_D2D.pgw.ppp[0].queue incomingPacketLengths:sum 0
scalar SingleCell_D2D.pgw.ppp[0].queue droppedPacketsQueueOverflow:count 0
scalar SingleCell_D2D.pgw.ppp[0].queue droppedPacketLengthsQueueOverflow:sum 0
scalar SingleCell_D2D.pgw.ppp[0].ppp transmissionState:timeavg 0
scalar SingleCell_D2D.pgw.ppp[0].ppp rxPkOk:count 0
scalar SingleCell_D2D.pgw.ppp[0].ppp rxPkOk:sum(packetBytes) 0
scalar SingleCell_D2D.pgw.ppp[0].ppp txPk:count 0
scalar SingleCell_D2D.pgw.ppp[0].ppp txPk:sum(packetBytes) 0
scalar SingleCell_D2D.pgw.ppp[0].ppp rcvdPkFromHl:count 0
scalar SingleCell_D2D.pgw.ppp[0].ppp rcvdPkFromHl:sum(packetBytes) 0
scalar SingleCell_D2D.pgw.ppp[0].ppp passedUpPk:count 0
scalar SingleCell_D2D.pgw.ppp[0].ppp passedUpPk:sum(packetBytes) 0
scalar SingleCell_D2D.pgw.ppp[0].ppp packetDropIncorrectlyReceived:count 0
scalar SingleCell_D2D.pgw.ppp[0].ppp packetDropIncorrectlyReceived:sum(packetBytes) 0
scalar SingleCell_D2D.pgw.ppp[0].ppp packetDropInterfaceDown:count 0
scalar SingleCell_D2D.pgw.ppp[0].ppp packetDropInterfaceDown:sum(packetBytes) 0
scalar SingleCell_D2D.pgw.ppp[0] packetDropInterfaceDown:count 0
scalar SingleCell_D2D.pgw.ppp[0] packetDropInterfaceDown:sum(packetBytes) 0
scalar SingleCell_D2D.pgw.ppp[0] packetDropNoCarrier:count 0
scalar SingleCell_D2D.pgw.ppp[0] packetDropNoCarrier:sum(packetBytes) 0
scalar SingleCell_D2D.pgw.ipv4.ip packetDropAddressResolutionFailed:count 0
scalar SingleCell_D2D.pgw.ipv4.ip packetDropAddressResolutionFailed:sum(packetBytes) 0
scalar SingleCell_D2D.pgw.ipv4.ip packetDropHopLimitReached:count 0
scalar SingleCell_D2D.pgw.ipv4.ip packetDropHopLimitReached:sum(packetBytes) 0
scalar SingleCell_D2D.pgw.ipv4.ip packetDropForwardingDisabled:count 0
scalar SingleCell_D2D.pgw.ipv4.ip packetDropForwardingDisabled:sum(packetBytes) 0
scalar SingleCell_D2D.pgw.ipv4.ip packetDropNoInterfaceFound:count 0
scalar SingleCell_D2D.pgw.ipv4.ip packetDropNoInterfaceFound:sum(packetBytes) 0
scalar SingleCell_D2D.pgw.ipv4.ip packetDropNoRouteFound:count 0
scalar SingleCell_D2D.pgw.ipv4.ip packetDropNoRouteFound:sum(packetBytes) 0
scalar SingleCell_D2D.pgw.ipv4.ip packetDropUndefined:count 0
scalar SingleCell_D2D.pgw.ipv4.ip packetDropUndefined:sum(packetBytes) 0
scalar SingleCell_D2D.pgw.ipv4.arp arpResolutionFailed:count 0
scalar SingleCell_D2D.pgw.ipv4.arp arpResolutionCompleted:count 0
scalar SingleCell_D2D.pgw.ipv4.arp arpResolutionInitiated:count 0
scalar SingleCell_D2D.pgw.ipv4.arp arpReplySent:count 0
scalar SingleCell_D2D.pgw.ipv4.arp arpReplySent:sum(packetBytes) 0
scalar SingleCell_D2D.pgw.ipv4.arp arpRequestSent:count 0
scalar SingleCell_D2D.pgw.ipv4.arp arpRequestSent:sum(packetBytes) 0
scalar SingleCell_D2D.pgw.pppIf.queue queueLength:last 0
scalar SingleCell_D2D.pgw.pppIf.queue queueLength:max 0
scalar SingleCell_D2D.pgw.pppIf.queue queueLength:timeavg 0
scalar SingleCell_D2D.pgw.pppIf.queue queueBitLength:last 0
scalar SingleCell_D2D.pgw.pppIf.queue queueBitLength:max 0
scalar SingleCell_D2D.pgw.pppIf.queue queueBitLength:timeavg 0
scalar SingleCell_D2D.pgw.pppIf.queue outgoingPackets:count 0
scalar SingleCell_D2D.pgw.pppIf.queue outgoingPacketLengths:sum 0
scalar SingleCell_D2D.pgw.pppIf.queue incomingPackets:count 0
scalar SingleCell_D2D.pgw.pppIf.queue incomingPacketLengths:sum 0
scalar SingleCell_D2D.pgw.pppIf.queue droppedPacketsQueueOverflow:count 0
scalar SingleCell_D2D.pgw.pppIf.queue droppedPacketLengthsQueueOverflow:sum 0
scalar SingleCell_D2D.pgw.pppIf.ppp transmissionState:timeavg 0
scalar SingleCell_D2D.pgw.pppIf.ppp rxPkOk:count 0
scalar SingleCell_D2D.pgw.pppIf.ppp rxPkOk:sum(packetBytes) 0
scalar SingleCell_D2D.pgw.pppIf.ppp txPk:count 0
scalar SingleCell_D2D.pgw.pppIf.ppp txPk:sum(packetBytes) 0
scalar SingleCell_D2D.pgw.pppIf.ppp rcvdPkFromHl:count 0
scalar SingleCell_D2D.pgw.pppIf.ppp rcvdPkFromHl:sum(packetBytes) 0
scalar SingleCell_D2D.pgw.pppIf.ppp passedUpPk:count 0
scalar SingleCell_D2D.pgw.pppIf.ppp passedUpPk:sum(packetBytes) 0
scalar SingleCell_D2D.pgw.pppIf.ppp packetDropIncorrectlyReceived:count 0
scalar SingleCell_D2D.pgw.pppIf.ppp packetDropIncorrectlyReceived:sum(packetBytes) 0
scalar SingleCell_D2D.pgw.pppIf.ppp packetDropInterfaceDown:count 0
scalar SingleCell_D2D.pgw.pppIf.ppp packetDropInterfaceDown:sum(packetBytes) 0
scalar SingleCell_D2D.pgw.pppIf packetDropInterfaceDown:count 0
scalar SingleCell_D2D.pgw.pppIf packetDropInterfaceDown:sum(packetBytes) 0
scalar SingleCell_D2D.pgw.pppIf packetDropNoCarrier:count 0
scalar SingleCell_D2D.pgw.pppIf packetDropNoCarrier:sum(packetBytes) 0
scalar SingleCell_D2D.pgw.udp packetReceived:count 0
scalar SingleCell_D2D.pgw.udp packetReceived:sum(packetBytes) 0
scalar SingleCell_D2D.pgw.udp packetSent:count 0
scalar SingleCell_D2D.pgw.udp packetSent:sum(packetBytes) 0
scalar SingleCell_D2D.pgw.udp passedUpPk:count 0
scalar SingleCell_D2D.pgw.udp droppedPkWrongPort:count 0
scalar SingleCell_D2D.pgw.udp droppedPkBadChecksum:count 0
scalar SingleCell_D2D.eNB.cellularNic.pdcp sentPacketToLowerLayer:count 564
scalar SingleCell_D2D.eNB.cellularNic.pdcp sentPacketToLowerLayer:sum(packetBytes) 174812
scalar SingleCell_D2D.eNB.cellularNic.pdcp sentPacketToUpperLayer:count 564
scalar SingleCell_D2D.eNB.cellularNic.pdcp sentPacketToUpperLayer:sum(packetBytes) 174248
scalar SingleCell_D2D.eNB.cellularNic.pdcp receivedPacketFromLowerLayer:count 564
scalar SingleCell_D2D.eNB.cellularNic.pdcp receivedPacketFromLowerLayer:sum(packetBytes) 174812
scalar SingleCell_D2D.eNB.cellularNic.pdcp receivedPacketFromUpperLayer:count 564
scalar SingleCell_D2D.eNB.cellularNic.pdcp receivedPacketFromUpperLayer:sum(packetBytes) 174248
scalar SingleCell_D2D.eNB.cellularNic.rlc.tm rlcPacketLossUl:mean -nan
scalar SingleCell_D2D.eNB.cellularNic.rlc.tm rlcPacketLossUl:sum 0
scalar SingleCell_D2D.eNB.cellularNic.rlc.tm rlcPacketLossDl:mean -nan
scalar SingleCell_D2D.eNB.cellularNic.rlc.tm rlcPacketLossDl:sum 0
scalar SingleCell_D2D.eNB.cellularNic.rlc.tm sentPacketToLowerLayer:count 0
scalar SingleCell_D2D.eNB.cellularNic.rlc.tm sentPacketToLowerLayer:sum(packetBytes) 0
scalar SingleCell_D2D.eNB.cellularNic.rlc.tm sentPacketToUpperLayer:count 0
scalar SingleCell_D2D.eNB.cellularNic.rlc.tm sentPacketToUpperLayer:sum(packetBytes) 0
scalar SingleCell_D2D.eNB.cellularNic.rlc.tm receivedPacketFromLowerLayer:count 0
scalar SingleCell_D2D.eNB.cellularNic.rlc.tm receivedPacketFromLowerLayer:sum(packetBytes) 0
scalar SingleCell_D2D.eNB.cellularNic.rlc.tm receivedPacketFromUpperLayer:count 0
scalar SingleCell_D2D.eNB.cellularNic.rlc.tm receivedPacketFromUpperLayer:sum(packetBytes) 0
scalar SingleCell_D2D.eNB.cellularNic.rlc.um rlcCellThroughputD2D:simu5g_rateavg -nan
scalar SingleCell_D2D.eNB.cellularNic.rlc.um rlcPduThroughputD2D:simu5g_rateavg -nan
scalar SingleCell_D2D.eNB.cellularNic.rlc.um rlcPduDelayD2D:mean -nan
scalar SingleCell_D2D.eNB.cellularNic.rlc.um rlcThroughputD2D:simu5g_rateavg -nan
scalar SingleCell_D2D.eNB.cellularNic.rlc.um rlcDelayD2D:mean -nan
scalar SingleCell_D2D.eNB.cellularNic.rlc.um rlcCellThroughputUl:simu5g_rateavg 176203.01380367362
scalar SingleCell_D2D.eNB.cellularNic.rlc.um rlcCellThroughputDl:simu5g_rateavg 156440.12763246658
scalar SingleCell_D2D.eNB.cellularNic.rlc.um rlcPduThroughputUl:simu5g_rateavg -nan
scalar SingleCell_D2D.eNB.cellularNic.rlc.um rlcPduThroughputDl:simu5g_rateavg -nan
scalar SingleCell_D2D.eNB.cellularNic.rlc.um rlcPduDelayUl:mean -nan
scalar SingleCell_D2D.eNB.cellularNic.rlc.um rlcPduDelayDl:mean -nan
scalar SingleCell_D2D.eNB.cellularNic.rlc.um rlcThroughputUl:simu5g_rateavg -nan
scalar SingleCell_D2D.eNB.cellularNic.rlc.um rlcThroughputDl:simu5g_rateavg -nan
scalar SingleCell_D2D.eNB.cellularNic.rlc.um rlcDelayUl:mean -nan
scalar SingleCell_D2D.eNB.cellularNic.rlc.um rlcDelayDl:mean -nan
scalar SingleCell_D2D.eNB.cellularNic.rlc.um sentPacketToLowerLayer:count 190
scalar SingleCell_D2D.eNB.cellularNic.rlc.um sentPacketToLowerLayer:sum(packetBytes) 175192
scalar SingleCell_D2D.eNB.cellularNic.rlc.um sentPacketToUpperLayer:count 564
scalar SingleCell_D2D.eNB.cellularNic.rlc.um sentPacketToUpperLayer:sum(packetBytes) 174812
scalar SingleCell_D2D.eNB.cellularNic.rlc.um receivedPacketFromLowerLayer:count 269
scalar SingleCell_D2D.eNB.cellularNic.rlc.um receivedPacketFromLowerLayer:sum(packetBytes) 175519
scalar SingleCell_D2D.eNB.cellularNic.rlc.um receivedPacketFromUpperLayer:count 564
scalar SingleCell_D2D.eNB.cellularNic.rlc.um receivedPacketFromUpperLayer:sum(packetBytes) 174812
scalar SingleCell_D2D.eNB.cellularNic.rlc.am rlcPacketLossTotal:mean -nan
scalar SingleCell_D2D.eNB.cellularNic.rlc.am rlcCellThroughputUl:simu5g_rateavg -nan
scalar SingleCell_D2D.eNB.cellularNic.rlc.am rlcCellThroughputDl:simu5g_rateavg -nan
scalar SingleCell_D2D.eNB.cellularNic.rlc.am rlcPduThroughputUl:simu5g_rateavg -nan
scalar SingleCell_D2D.eNB.cellularNic.rlc.am rlcPduThroughputDl:simu5g_rateavg -nan
scalar SingleCell_D2D.eNB.cellularNic.rlc.am rlcPduDelayUl:mean -nan
scalar SingleCell_D2D.eNB.cellularNic.rlc.am rlcPduDelayDl:mean -nan
scalar SingleCell_D2D.eNB.cellularNic.rlc.am rlcThroughputUl:simu5g_rateavg -nan
scalar SingleCell_D2D.eNB.cellularNic.rlc.am rlcThroughputDl:simu5g_rateavg -nan
scalar SingleCell_D2D.eNB.cellularNic.rlc.am rlcDelayUl:mean -nan
scalar SingleCell_D2D.eNB.cellularNic.rlc.am rlcDelayDl:mean -nan
scalar SingleCell_D2D.eNB.cellularNic.rlc.am rlcPduPacketLossUl:mean -nan
scalar SingleCell_D2D.eNB.cellularNic.rlc.am rlcPduPacketLossDl:mean -nan
scalar SingleCell_D2D.eNB.cellularNic.rlc.am rlcPacketLossUl:mean -nan
scalar SingleCell_D2D.eNB.cellularNic.rlc.am rlcPacketLossDl:mean -nan
scalar SingleCell_D2D.eNB.cellularNic.rlc.am rlcCellPacketLossUl:mean -nan
scalar SingleCell_D2D.eNB.cellularNic.rlc.am rlcCellPacketLossDl:mean -nan
scalar SingleCell_D2D.eNB.cellularNic.mac avgServedBlocksUl:mean 3.9590000000000001
scalar SingleCell_D2D.eNB.cellularNic.mac avgServedBlocksDl:mean 0.41099999999999998
scalar SingleCell_D2D.eNB.cellularNic.mac macCellPacketLossD2D:mean 0
scalar SingleCell_D2D.eNB.cellularNic.mac macCellThroughputD2D:simu5g_rateavg 142662.22786843401
scalar SingleCell_D2D.eNB.cellularNic.mac harqTxAttemptsUl:mean -nan
scalar SingleCell_D2D.eNB.cellularNic.mac harqTxAttemptsDl:mean -nan
scalar SingleCell_D2D.eNB.cellularNic.mac harqErrorRate_4th_Ul:mean -nan
scalar SingleCell_D2D.eNB.cellularNic.mac harqErrorRate_4th_Dl:mean -nan
scalar SingleCell_D2D.eNB.cellularNic.mac harqErrorRate_3rd_Ul:mean -nan
scalar SingleCell_D2D.eNB.cellularNic.mac harqErrorRate_3rd_Dl:mean -nan
scalar SingleCell_D2D.eNB.cellularNic.mac harqErrorRate_2nd_Ul:mean -nan
scalar SingleCell_D2D.eNB.cellularNic.mac harqErrorRate_2nd_Dl:mean -nan
scalar SingleCell_D2D.eNB.cellularNic.mac harqErrorRate_1st_Ul:mean -nan
scalar SingleCell_D2D.eNB.cellularNic.mac harqErrorRate_1st_Dl:mean -nan
scalar SingleCell_D2D.eNB.cellularNic.mac harqErrorRateUl:mean -nan
scalar SingleCell_D2D.eNB.cellularNic.mac harqErrorRateDl:mean -nan
scalar SingleCell_D2D.eNB.cellularNic.mac macCellPacketLossUl:mean 0
scalar SingleCell_D2D.eNB.cellularNic.mac macCellPacketLossDl:mean 0
scalar SingleCell_D2D.eNB.cellularNic.mac macPacketLossUl:mean -nan
scalar SingleCell_D2D.eNB.cellularNic.mac macPacketLossDl:mean -nan
scalar SingleCell_D2D.eNB.cellularNic.mac macThroughputUl:simu5g_rateavg -nan
scalar SingleCell_D2D.eNB.cellularNic.mac macThroughputDl:simu5g_rateavg -nan
scalar SingleCell_D2D.eNB.cellularNic.mac macDelayUl:mean -nan
scalar SingleCell_D2D.eNB.cellularNic.mac macDelayDl:mean -nan
scalar SingleCell_D2D.eNB.cellularNic.mac macCellThroughputUl:simu5g_rateavg 157081.38551091106
scalar SingleCell_D2D.eNB.cellularNic.mac macCellThroughputDl:simu5g_rateavg 176700.48459469769
scalar SingleCell_D2D.eNB.cellularNic.mac sentPacketToLowerLayer:count 2487
scalar SingleCell_D2D.eNB.cellularNic.mac sentPacketToLowerLayer:sum(packetBytes) 177869
scalar SingleCell_D2D.eNB.cellularNic.mac sentPacketToUpperLayer:count 459
scalar SingleCell_D2D.eNB.cellularNic.mac sentPacketToUpperLayer:sum(packetBytes) 175709
scalar SingleCell_D2D.eNB.cellularNic.mac receivedPacketFromLowerLayer:count 3261
scalar SingleCell_D2D.eNB.cellularNic.mac receivedPacketFromLowerLayer:sum(packetBytes) 184997
scalar SingleCell_D2D.eNB.cellularNic.mac receivedPacketFromUpperLayer:count 754
scalar SingleCell_D2D.eNB.cellularNic.mac receivedPacketFromUpperLayer:sum(packetBytes) 350004
scalar SingleCell_D2D.eNB.cellularNic.mac macBufferOverFlowD2D:mean -nan
scalar SingleCell_D2D.eNB.cellularNic.mac macBufferOverFlowUl:mean -nan
scalar SingleCell_D2D.eNB.cellularNic.mac macBufferOverFlowDl:mean -nan
scalar SingleCell_D2D.eNB.cellularNic.channelModel[0] measuredSinrUl:mean -nan
scalar SingleCell_D2D.eNB.cellularNic.channelModel[0] measuredSinrDl:mean -nan
scalar SingleCell_D2D.eNB.cellularNic.channelModel[0] rcvdSinrD2D:mean -nan
scalar SingleCell_D2D.eNB.cellularNic.channelModel[0] rcvdSinrUl:mean -nan
scalar SingleCell_D2D.eNB.cellularNic.channelModel[0] rcvdSinrDl:mean -nan
scalar SingleCell_D2D.eNB.cellularNic packetDropInterfaceDown:count 0
scalar SingleCell_D2D.eNB.cellularNic packetDropInterfaceDown:sum(packetBytes) 0
scalar SingleCell_D2D.eNB.cellularNic packetDropNoCarrier:count 0
scalar SingleCell_D2D.eNB.cellularNic packetDropNoCarrier:sum(packetBytes) 0
scalar SingleCell_D2D.eNB.pppIf.queue queueLength:last 0
scalar SingleCell_D2D.eNB.pppIf.queue queueLength:max 0
scalar SingleCell_D2D.eNB.pppIf.queue queueLength:timeavg 0
scalar SingleCell_D2D.eNB.pppIf.queue queueBitLength:last 0
scalar SingleCell_D2D.eNB.pppIf.queue queueBitLength:max 0
scalar SingleCell_D2D.eNB.pppIf.queue queueBitLength:timeavg 0
scalar SingleCell_D2D.eNB.pppIf.queue outgoingPackets:count 0
scalar SingleCell_D2D.eNB.pppIf.queue outgoingPacketLengths:sum 0
scalar SingleCell_D2D.eNB.pppIf.queue incomingPackets:count 0
scalar SingleCell_D2D.eNB.pppIf.queue incomingPacketLengths:sum 0
scalar SingleCell_D2D.eNB.pppIf.queue droppedPacketsQueueOverflow:count 0
scalar SingleCell_D2D.eNB.pppIf.queue droppedPacketLengthsQueueOverflow:sum 0
scalar SingleCell_D2D.eNB.pppIf.ppp transmissionState:timeavg 0
scalar SingleCell_D2D.eNB.pppIf.ppp rxPkOk:count 0
scalar SingleCell_D2D.eNB.pppIf.ppp rxPkOk:sum(packetBytes) 0
scalar SingleCell_D2D.eNB.pppIf.ppp txPk:count 0
scalar SingleCell_D2D.eNB.pppIf.ppp txPk:sum(packetBytes) 0
scalar SingleCell_D2D.eNB.pppIf.ppp rcvdPkFromHl:count 0
scalar SingleCell_D2D.eNB.pppIf.ppp rcvdPkFromHl:sum(packetBytes) 0
scalar SingleCell_D2D.eNB.pppIf.ppp passedUpPk:count 0
scalar SingleCell_D2D.eNB.pppIf.ppp passedUpPk:sum(packetBytes) 0
scalar SingleCell_D2D.eNB.pppIf.ppp packetDropIncorrectlyReceived:count 0
scalar SingleCell_D2D.eNB.pppIf.ppp packetDropIncorrectlyReceived:sum(packetBytes) 0
scalar SingleCell_D2D.eNB.pppIf.ppp packetDropInterfaceDown:count 0
scalar SingleCell_D2D.eNB.pppIf.ppp packetDropInterfaceDown:sum(packetBytes) 0
scalar SingleCell_D2D.eNB.pppIf packetDropInterfaceDown:count 0
scalar SingleCell_D2D.eNB.pppIf packetDropInterfaceDown:sum(packetBytes) 0
scalar SingleCell_D2D.eNB.pppIf packetDropNoCarrier:count 0
scalar SingleCell_D2D.eNB.pppIf packetDropNoCarrier:sum(packetBytes) 0
scalar SingleCell_D2D.eNB.pppMEHostIf.queue queueLength:last 0
scalar SingleCell_D2D.eNB.pppMEHostIf.queue queueLength:max 0
scalar SingleCell_D2D.eNB.pppMEHostIf.queue queueLength:timeavg 0
scalar SingleCell_D2D.eNB.pppMEHostIf.queue queueBitLength:last 0
scalar SingleCell_D2D.eNB.pppMEHostIf.queue queueBitLength:max 0
scalar SingleCell_D2D.eNB.pppMEHostIf.queue queueBitLength:timeavg 0
scalar SingleCell_D2D.eNB.pppMEHostIf.queue outgoingPackets:count 0
scalar SingleCell_D2D.eNB.pppMEHostIf.queue outgoingPacketLengths:sum 0
scalar SingleCell_D2D.eNB.pppMEHostIf.queue incomingPackets:count 0
scalar SingleCell_D2D.eNB.pppMEHostIf.queue incomingPacketLengths:sum 0
scalar SingleCell_D2D.eNB.pppMEHostIf.queue droppedPacketsQueueOverflow:count 0
scalar SingleCell_D2D.eNB.pppMEHostIf.queue droppedPacketLengthsQueueOverflow:sum 0
scalar SingleCell_D2D.eNB.pppMEHostIf.ppp transmissionState:timeavg 0
scalar SingleCell_D2D.eNB.pppMEHostIf.ppp rxPkOk:count 0
scalar SingleCell_D2D.eNB.pppMEHostIf.ppp rxPkOk:sum(packetBytes) 0
scalar SingleCell_D2D.eNB.pppMEHostIf.ppp txPk:count 0
scalar SingleCell_D2D.eNB.pppMEHostIf.ppp txPk:sum(packetBytes) 0
scalar SingleCell_D2D.eNB.pppMEHostIf.ppp rcvdPkFromHl:count 0
scalar SingleCell_D2D.eNB.pppMEHostIf.ppp rcvdPkFromHl:sum(packetBytes) 0
scalar SingleCell_D2D.eNB.pppMEHostIf.ppp passedUpPk:count 0
scalar SingleCell_D2D.eNB.pppMEHostIf.ppp passedUpPk:sum(packetBytes) 0
scalar SingleCell_D2D.eNB.pppMEHostIf.ppp packetDropIncorrectlyReceived:count 0
scalar SingleCell_D2D.eNB.pppMEHostIf.ppp packetDropIncorrectlyReceived:sum(packetBytes) 0
scalar SingleCell_D2D.eNB.pppMEHostIf.ppp packetDropInterfaceDown:count 0
scalar SingleCell_D2D.eNB.pppMEHostIf.ppp packetDropInterfaceDown:sum(packetBytes) 0
scalar SingleCell_D2D.eNB.pppMEHostIf packetDropInterfaceDown:count 0
scalar SingleCell_D2D.eNB.pppMEHostIf packetDropInterfaceDown:sum(packetBytes) 0
scalar SingleCell_D2D.eNB.pppMEHostIf packetDropNoCarrier:count 0
scalar SingleCell_D2D.eNB.pppMEHostIf packetDropNoCarrier:sum(packetBytes) 0
scalar SingleCell_D2D.eNB.ipv4.ip packetDropAddressResolutionFailed:count 0
scalar SingleCell_D2D.eNB.ipv4.ip packetDropAddressResolutionFailed:sum(packetBytes) 0
scalar SingleCell_D2D.eNB.ipv4.ip packetDropHopLimitReached:count 0
scalar SingleCell_D2D.eNB.ipv4.ip packetDropHopLimitReached:sum(packetBytes) 0
scalar SingleCell_D2D.eNB.ipv4.ip packetDropForwardingDisabled:count 0
scalar SingleCell_D2D.eNB.ipv4.ip packetDropForwardingDisabled:sum(packetBytes) 0
scalar SingleCell_D2D.eNB.ipv4.ip packetDropNoInterfaceFound:count 0
scalar SingleCell_D2D.eNB.ipv4.ip packetDropNoInterfaceFound:sum(packetBytes) 0
scalar SingleCell_D2D.eNB.ipv4.ip packetDropNoRouteFound:count 0
scalar SingleCell_D2D.eNB.ipv4.ip packetDropNoRouteFound:sum(packetBytes) 0
scalar SingleCell_D2D.eNB.ipv4.ip packetDropUndefined:count 0
scalar SingleCell_D2D.eNB.ipv4.ip packetDropUndefined:sum(packetBytes) 0
scalar SingleCell_D2D.eNB.ipv4.arp arpResolutionFailed:count 0
scalar SingleCell_D2D.eNB.ipv4.arp arpResolutionCompleted:count 0
scalar SingleCell_D2D.eNB.ipv4.arp arpResolutionInitiated:count 0
scalar SingleCell_D2D.eNB.ipv4.arp arpReplySent:count 0
scalar SingleCell_D2D.eNB.ipv4.arp arpReplySent:sum(packetBytes) 0
scalar SingleCell_D2D.eNB.ipv4.arp arpRequestSent:count 0
scalar SingleCell_D2D.eNB.ipv4.arp arpRequestSent:sum(packetBytes) 0
scalar SingleCell_D2D.eNB.udp packetReceived:count 0
scalar SingleCell_D2D.eNB.udp packetReceived:sum(packetBytes) 0
scalar SingleCell_D2D.eNB.udp packetSent:count 0
scalar SingleCell_D2D.eNB.udp packetSent:sum(packetBytes) 0
scalar SingleCell_D2D.eNB.udp passedUpPk:count 0
scalar SingleCell_D2D.eNB.udp droppedPkWrongPort:count 0
scalar SingleCell_D2D.eNB.udp droppedPkBadChecksum:count 0
scalar SingleCell_D2D.ueD2DTx[0].lo[0].lo rcvdPkFromHl:count 0
scalar SingleCell_D2D.ueD2DTx[0].lo[0].lo rcvdPkFromHl:sum(packetBytes) 0
scalar SingleCell_D2D.ueD2DTx[0].lo[0].lo passedUpPk:count 0
scalar SingleCell_D2D.ueD2DTx[0].lo[0].lo passedUpPk:sum(packetBytes) 0
scalar SingleCell_D2D.ueD2DTx[0].lo[0] packetDropInterfaceDown:count 0
scalar SingleCell_D2D.ueD2DTx[0].lo[0] packetDropInterfaceDown:sum(packetBytes) 0
scalar SingleCell_D2D.ueD2DTx[0].lo[0] packetDropNoCarrier:count 0
scalar SingleCell_D2D.ueD2DTx[0].lo[0] packetDropNoCarrier:sum(packetBytes) 0
scalar SingleCell_D2D.ueD2DTx[0].cellularNic.pdcp sentPacketToLowerLayer:count 1432
scalar SingleCell_D2D.ueD2DTx[0].cellularNic.pdcp sentPacketToLowerLayer:sum(packetBytes) 825196
scalar SingleCell_D2D.ueD2DTx[0].cellularNic.pdcp sentPacketToUpperLayer:count 1403
scalar SingleCell_D2D.ueD2DTx[0].cellularNic.pdcp sentPacketToUpperLayer:sum(packetBytes) 56124
scalar SingleCell_D2D.ueD2DTx[0].cellularNic.pdcp receivedPacketFromLowerLayer:count 1403
scalar SingleCell_D2D.ueD2DTx[0].cellularNic.pdcp receivedPacketFromLowerLayer:sum(packetBytes) 57527
scalar SingleCell_D2D.ueD2DTx[0].cellularNic.pdcp receivedPacketFromUpperLayer:count 1432
scalar SingleCell_D2D.ueD2DTx[0].cellularNic.pdcp receivedPacketFromUpperLayer:sum(packetBytes) 823764
scalar SingleCell_D2D.ueD2DTx[0].cellularNic.rlc.tm rlcPacketLossUl:mean -nan
scalar SingleCell_D2D.ueD2DTx[0].cellularNic.rlc.tm rlcPacketLossUl:sum 0
scalar SingleCell_D2D.ueD2DTx[0].cellularNic.rlc.tm rlcPacketLossDl:mean -nan
scalar SingleCell_D2D.ueD2DTx[0].cellularNic.rlc.tm rlcPacketLossDl:sum 0
scalar SingleCell_D2D.ueD2DTx[0].cellularNic.rlc.tm sentPacketToLowerLayer:count 0
scalar SingleCell_D2D.ueD2DTx[0].cellularNic.rlc.tm sentPacketToLowerLayer:sum(packetBytes) 0
scalar SingleCell_D2D.ueD2DTx[0].cellularNic.rlc.tm sentPacketToUpperLayer:count 0
scalar SingleCell_D2D.ueD2DTx[0].cellularNic.rlc.tm sentPacketToUpperLayer:sum(packetBytes) 0
scalar SingleCell_D2D.ueD2DTx[0].cellularNic.rlc.tm receivedPacketFromLowerLayer:count 0
scalar SingleCell_D2D.ueD2DTx[0].cellularNic.rlc.tm receivedPacketFromLowerLayer:sum(packetBytes) 0
scalar SingleCell_D2D.ueD2DTx[0].cellularNic.rlc.tm receivedPacketFromUpperLayer:count 0
scalar SingleCell_D2D.ueD2DTx[0].cellularNic.rlc.tm receivedPacketFromUpperLayer:sum(packetBytes) 0
scalar SingleCell_D2D.ueD2DTx[0].cellularNic.rlc.um rlcCellThroughputD2D:simu5g_rateavg -nan
scalar SingleCell_D2D.ueD2DTx[0].cellularNic.rlc.um rlcPduThroughputD2D:simu5g_rateavg 0
scalar SingleCell_D2D.ueD2DTx[0].cellularNic.rlc.um rlcPduDelayD2D:mean 0.004095238095238098
scalar SingleCell_D2D.ueD2DTx[0].cellularNic.rlc.um rlcThroughputD2D:simu5g_rateavg 9196.5330280572653
scalar SingleCell_D2D.ueD2DTx[0].cellularNic.rlc.um rlcDelayD2D:mean 0.014564171122994607
scalar SingleCell_D2D.ueD2DTx[0].cellularNic.rlc.um rlcCellThroughputUl:simu5g_rateavg -nan
scalar SingleCell_D2D.ueD2DTx[0].cellularNic.rlc.um rlcCellThroughputDl:simu5g_rateavg -nan
scalar SingleCell_D2D.ueD2DTx[0].cellularNic.rlc.um rlcPduThroughputUl:simu5g_rateavg 0
scalar SingleCell_D2D.ueD2DTx[0].cellularNic.rlc.um rlcPduThroughputDl:simu5g_rateavg 0
scalar SingleCell_D2D.ueD2DTx[0].cellularNic.rlc.um rlcPduDelayUl:mean 0.0040000000000000027
scalar SingleCell_D2D.ueD2DTx[0].cellularNic.rlc.um rlcPduDelayDl:mean 0.0040000000000000027
scalar SingleCell_D2D.ueD2DTx[0].cellularNic.rlc.um rlcThroughputUl:simu5g_rateavg 2988.4256873308932
scalar SingleCell_D2D.ueD2DTx[0].cellularNic.rlc.um rlcThroughputDl:simu5g_rateavg 204.8388100165935
scalar SingleCell_D2D.ueD2DTx[0].cellularNic.rlc.um rlcDelayUl:mean 0.01724381625441692
scalar SingleCell_D2D.ueD2DTx[0].cellularNic.rlc.um rlcDelayDl:mean 0.016594306049822038
scalar SingleCell_D2D.ueD2DTx[0].cellularNic.rlc.um sentPacketToLowerLayer:count 368
scalar SingleCell_D2D.ueD2DTx[0].cellularNic.rlc.um sentPacketToLowerLayer:sum(packetBytes) 824778
scalar SingleCell_D2D.ueD2DTx[0].cellularNic.rlc.um sentPacketToUpperLayer:count 1403
scalar SingleCell_D2D.ueD2DTx[0].cellularNic.rlc.um sentPacketToUpperLayer:sum(packetBytes) 57527
scalar SingleCell_D2D.ueD2DTx[0].cellularNic.rlc.um receivedPacketFromLowerLayer:count 182
scalar SingleCell_D2D.ueD2DTx[0].cellularNic.rlc.um receivedPacketFromLowerLayer:sum(packetBytes) 57891
scalar SingleCell_D2D.ueD2DTx[0].cellularNic.rlc.um receivedPacketFromUpperLayer:count 1432
scalar SingleCell_D2D.ueD2DTx[0].cellularNic.rlc.um receivedPacketFromUpperLayer:sum(packetBytes) 825196
scalar SingleCell_D2D.ueD2DTx[0].cellularNic.rlc.am rlcPacketLossTotal:mean -nan
scalar SingleCell_D2D.ueD2DTx[0].cellularNic.rlc.am rlcCellThroughputUl:simu5g_rateavg -nan
scalar SingleCell_D2D.ueD2DTx[0].cellularNic.rlc.am rlcCellThroughputDl:simu5g_rateavg -nan
scalar SingleCell_D2D.ueD2DTx[0].cellularNic.rlc.am rlcPduThroughputUl:simu5g_rateavg -nan
scalar SingleCell_D2D.ueD2DTx[0].cellularNic.rlc.am rlcPduThroughputDl:simu5g_rateavg -nan
scalar SingleCell_D2D.ueD2DTx[0].cellularNic.rlc.am rlcPduDelayUl:mean -nan
scalar SingleCell_D2D.ueD2DTx[0].cellularNic.rlc.am rlcPduDelayDl:mean -nan
scalar SingleCell_D2D.ueD2DTx[0].cellularNic.rlc.am rlcThroughputUl:simu5g_rateavg -nan
scalar SingleCell_D2D.ueD2DTx[0].cellularNic.rlc.am rlcThroughputDl:simu5g_rateavg -nan
scalar SingleCell_D2D.ueD2DTx[0].cellularNic.rlc.am rlcDelayUl:mean -nan
scalar SingleCell_D2D.ueD2DTx[0].cellularNic.rlc.am rlcDelayDl:mean -nan
scalar SingleCell_D2D.ueD2DTx[0].cellularNic.rlc.am rlcPduPacketLossUl:mean -nan
scalar SingleCell_D2D.ueD2DTx[0].cellularNic.rlc.am rlcPduPacketLossDl:mean -nan
scalar SingleCell_D2D.ueD2DTx[0].cellularNic.rlc.am rlcPacketLossUl:mean -nan
scalar SingleCell_D2D.ueD2DTx[0].cellularNic.rlc.am rlcPacketLossDl:mean -nan
scalar SingleCell_D2D.ueD2DTx[0].cellularNic.rlc.am rlcCellPacketLossUl:mean -nan
scalar SingleCell_D2D.ueD2DTx[0].cellularNic.rlc.am rlcCellPacketLossDl:mean -nan
scalar SingleCell_D2D.ueD2DTx[0].cellularNic.mac harqErrorRate_4th_D2D:mean -nan
scalar SingleCell_D2D.ueD2DTx[0].cellularNic.mac harqErrorRate_3rd_D2D:mean -nan
scalar SingleCell_D2D.ueD2DTx[0].cellularNic.mac harqErrorRate_2nd_D2D:mean 0
scalar SingleCell_D2D.ueD2DTx[0].cellularNic.mac harqErrorRate_1st_D2D:mean 0.011904761904761904
scalar SingleCell_D2D.ueD2DTx[0].cellularNic.mac harqErrorRateD2D:mean 0.011764705882352941
scalar SingleCell_D2D.ueD2DTx[0].cellularNic.mac macPacketLossD2D:mean 0
scalar SingleCell_D2D.ueD2DTx[0].cellularNic.mac macDelayD2D:mean 0.004095238095238098
scalar SingleCell_D2D.ueD2DTx[0].cellularNic.mac macThroughputD2D:simu5g_rateavg 9564.8579147567762
scalar SingleCell_D2D.ueD2DTx[0].cellularNic.mac harqTxAttemptsUl:mean 1
scalar SingleCell_D2D.ueD2DTx[0].cellularNic.mac harqTxAttemptsDl:mean 1
scalar SingleCell_D2D.ueD2DTx[0].cellularNic.mac harqErrorRate_4th_Ul:mean -nan
scalar SingleCell_D2D.ueD2DTx[0].cellularNic.mac harqErrorRate_4th_Dl:mean -nan
scalar SingleCell_D2D.ueD2DTx[0].cellularNic.mac harqErrorRate_3rd_Ul:mean -nan
scalar SingleCell_D2D.ueD2DTx[0].cellularNic.mac harqErrorRate_3rd_Dl:mean -nan
scalar SingleCell_D2D.ueD2DTx[0].cellularNic.mac harqErrorRate_2nd_Ul:mean -nan
scalar SingleCell_D2D.ueD2DTx[0].cellularNic.mac harqErrorRate_2nd_Dl:mean -nan
scalar SingleCell_D2D.ueD2DTx[0].cellularNic.mac harqErrorRate_1st_Ul:mean 0
scalar SingleCell_D2D.ueD2DTx[0].cellularNic.mac harqErrorRate_1st_Dl:mean 0
scalar SingleCell_D2D.ueD2DTx[0].cellularNic.mac harqErrorRateUl:mean 0
scalar SingleCell_D2D.ueD2DTx[0].cellularNic.mac harqErrorRateDl:mean 0
scalar SingleCell_D2D.ueD2DTx[0].cellularNic.mac macCellPacketLossUl:mean -nan
scalar SingleCell_D2D.ueD2DTx[0].cellularNic.mac macCellPacketLossDl:mean -nan
scalar SingleCell_D2D.ueD2DTx[0].cellularNic.mac macPacketLossUl:mean 0
scalar SingleCell_D2D.ueD2DTx[0].cellularNic.mac macPacketLossDl:mean 0
scalar SingleCell_D2D.ueD2DTx[0].cellularNic.mac macThroughputUl:simu5g_rateavg 3021.2510481214308
scalar SingleCell_D2D.ueD2DTx[0].cellularNic.mac macThroughputDl:simu5g_rateavg 215.69974574947267
scalar SingleCell_D2D.ueD2DTx[0].cellularNic.mac macDelayUl:mean 0.0040000000000000027
scalar SingleCell_D2D.ueD2DTx[0].cellularNic.mac macDelayDl:mean 0.0040000000000000027
scalar SingleCell_D2D.ueD2DTx[0].cellularNic.mac macCellThroughputUl:simu5g_rateavg -nan
scalar SingleCell_D2D.ueD2DTx[0].cellularNic.mac macCellThroughputDl:simu5g_rateavg -nan
scalar SingleCell_D2D.ueD2DTx[0].cellularNic.mac rcvdD2DModeSwitchNotification:count 1
scalar SingleCell_D2D.ueD2DTx[0].cellularNic.mac sentPacketToLowerLayer:count 1072
scalar SingleCell_D2D.ueD2DTx[0].cellularNic.mac sentPacketToLowerLayer:sum(packetBytes) 875530
scalar SingleCell_D2D.ueD2DTx[0].cellularNic.mac sentPacketToUpperLayer:count 552
scalar SingleCell_D2D.ueD2DTx[0].cellularNic.mac sentPacketToUpperLayer:sum(packetBytes) 58261
scalar SingleCell_D2D.ueD2DTx[0].cellularNic.mac receivedPacketFromLowerLayer:count 1733
scalar SingleCell_D2D.ueD2DTx[0].cellularNic.mac receivedPacketFromLowerLayer:sum(packetBytes) 60383
scalar SingleCell_D2D.ueD2DTx[0].cellularNic.mac receivedPacketFromUpperLayer:count 1800
scalar SingleCell_D2D.ueD2DTx[0].cellularNic.mac receivedPacketFromUpperLayer:sum(packetBytes) 1649974
scalar SingleCell_D2D.ueD2DTx[0].cellularNic.mac macBufferOverFlowD2D:mean -nan
scalar SingleCell_D2D.ueD2DTx[0].cellularNic.mac macBufferOverFlowUl:mean -nan
scalar SingleCell_D2D.ueD2DTx[0].cellularNic.mac macBufferOverFlowDl:mean -nan
scalar SingleCell_D2D.ueD2DTx[0].cellularNic.phy distance:mean 106.98252357208288
scalar SingleCell_D2D.ueD2DTx[0].cellularNic.phy averageCqiD2D:mean 13.879227053140097
scalar SingleCell_D2D.ueD2DTx[0].cellularNic.phy averageCqiUl:mean 15
scalar SingleCell_D2D.ueD2DTx[0].cellularNic.phy averageCqiUl:count 345
scalar SingleCell_D2D.ueD2DTx[0].cellularNic.phy averageCqiDl:mean 15
scalar SingleCell_D2D.ueD2DTx[0].cellularNic.phy averageCqiDl:count 98
scalar SingleCell_D2D.ueD2DTx[0].cellularNic.channelModel[0] measuredSinrUl:mean 42.683562462121564
scalar SingleCell_D2D.ueD2DTx[0].cellularNic.channelModel[0] measuredSinrDl:mean 60.683562462121245
scalar SingleCell_D2D.ueD2DTx[0].cellularNic.channelModel[0] rcvdSinrD2D:mean -nan
scalar SingleCell_D2D.ueD2DTx[0].cellularNic.channelModel[0] rcvdSinrUl:mean 39.236619027562305
scalar SingleCell_D2D.ueD2DTx[0].cellularNic.channelModel[0] rcvdSinrDl:mean 59.511361981061846
scalar SingleCell_D2D.ueD2DTx[0].cellularNic packetDropInterfaceDown:count 0
scalar SingleCell_D2D.ueD2DTx[0].cellularNic packetDropInterfaceDown:sum(packetBytes) 0
scalar SingleCell_D2D.ueD2DTx[0].cellularNic packetDropNoCarrier:count 0
scalar SingleCell_D2D.ueD2DTx[0].cellularNic packetDropNoCarrier:sum(packetBytes) 0
scalar SingleCell_D2D.ueD2DTx[0].encap pauseSent:count 0
scalar SingleCell_D2D.ueD2DTx[0].encap pauseSent:sum 0
scalar SingleCell_D2D.ueD2DTx[0].encap decapPk:count 0
scalar SingleCell_D2D.ueD2DTx[0].encap decapPk:sum(packetBytes) 0
scalar SingleCell_D2D.ueD2DTx[0].encap encapPk:count 0
scalar SingleCell_D2D.ueD2DTx[0].encap encapPk:sum(packetBytes) 0
scalar SingleCell_D2D.ueD2DTx[0].ipv4.ip packetDropAddressResolutionFailed:count 0
scalar SingleCell_D2D.ueD2DTx[0].ipv4.ip packetDropAddressResolutionFailed:sum(packetBytes) 0
scalar SingleCell_D2D.ueD2DTx[0].ipv4.ip packetDropHopLimitReached:count 0
scalar SingleCell_D2D.ueD2DTx[0].ipv4.ip packetDropHopLimitReached:sum(packetBytes) 0
scalar SingleCell_D2D.ueD2DTx[0].ipv4.ip packetDropForwardingDisabled:count 0
scalar SingleCell_D2D.ueD2DTx[0].ipv4.ip packetDropForwardingDisabled:sum(packetBytes) 0
scalar SingleCell_D2D.ueD2DTx[0].ipv4.ip packetDropNoInterfaceFound:count 0
scalar SingleCell_D2D.ueD2DTx[0].ipv4.ip packetDropNoInterfaceFound:sum(packetBytes) 0
scalar SingleCell_D2D.ueD2DTx[0].ipv4.ip packetDropNoRouteFound:count 0
scalar SingleCell_D2D.ueD2DTx[0].ipv4.ip packetDropNoRouteFound:sum(packetBytes) 0
scalar SingleCell_D2D.ueD2DTx[0].ipv4.ip packetDropUndefined:count 0
scalar SingleCell_D2D.ueD2DTx[0].ipv4.ip packetDropUndefined:sum(packetBytes) 0
scalar SingleCell_D2D.ueD2DTx[0].ipv4.arp arpResolutionFailed:count 0
scalar SingleCell_D2D.ueD2DTx[0].ipv4.arp arpResolutionCompleted:count 0
scalar SingleCell_D2D.ueD2DTx[0].ipv4.arp arpResolutionInitiated:count 0
scalar SingleCell_D2D.ueD2DTx[0].ipv4.arp arpReplySent:count 0
scalar SingleCell_D2D.ueD2DTx[0].ipv4.arp arpReplySent:sum(packetBytes) 0
scalar SingleCell_D2D.ueD2DTx[0].ipv4.arp arpRequestSent:count 0
scalar SingleCell_D2D.ueD2DTx[0].ipv4.arp arpRequestSent:sum(packetBytes) 0
scalar SingleCell_D2D.ueD2DTx[0].udp packetReceived:count 0
scalar SingleCell_D2D.ueD2DTx[0].udp packetReceived:sum(packetBytes) 0
scalar SingleCell_D2D.ueD2DTx[0].udp packetSent:count 0
scalar SingleCell_D2D.ueD2DTx[0].udp packetSent:sum(packetBytes) 0
scalar SingleCell_D2D.ueD2DTx[0].udp passedUpPk:count 0
scalar SingleCell_D2D.ueD2DTx[0].udp droppedPkWrongPort:count 0
scalar SingleCell_D2D.ueD2DTx[0].udp droppedPkBadChecksum:count 0
scalar SingleCell_D2D.ueD2DTx[0].app[0] bytesRcvd 0
scalar SingleCell_D2D.ueD2DTx[0].app[0] bytesSent 1073741824
scalar SingleCell_D2D.ueD2DTx[0].app[0] packetReceived:count 0
scalar SingleCell_D2D.ueD2DTx[0].app[0] packetReceived:sum(packetBytes) 0
scalar SingleCell_D2D.ueD2DTx[0].app[0] packetSent:count 1
scalar SingleCell_D2D.ueD2DTx[0].app[0] packetSent:sum(packetBytes) 1073741824
scalar SingleCell_D2D.ueD2DRx[0].lo[0].lo rcvdPkFromHl:count 0
scalar SingleCell_D2D.ueD2DRx[0].lo[0].lo rcvdPkFromHl:sum(packetBytes) 0
scalar SingleCell_D2D.ueD2DRx[0].lo[0].lo passedUpPk:count 0
scalar SingleCell_D2D.ueD2DRx[0].lo[0].lo passedUpPk:sum(packetBytes) 0
scalar SingleCell_D2D.ueD2DRx[0].lo[0] packetDropInterfaceDown:count 0
scalar SingleCell_D2D.ueD2DRx[0].lo[0] packetDropInterfaceDown:sum(packetBytes) 0
scalar SingleCell_D2D.ueD2DRx[0].lo[0] packetDropNoCarrier:count 0
scalar SingleCell_D2D.ueD2DRx[0].lo[0] packetDropNoCarrier:sum(packetBytes) 0
scalar SingleCell_D2D.ueD2DRx[0].cellularNic.pdcp sentPacketToLowerLayer:count 1419
scalar SingleCell_D2D.ueD2DRx[0].cellularNic.pdcp sentPacketToLowerLayer:sum(packetBytes) 58183
scalar SingleCell_D2D.ueD2DRx[0].cellularNic.pdcp sentPacketToUpperLayer:count 1420
scalar SingleCell_D2D.ueD2DRx[0].cellularNic.pdcp sentPacketToUpperLayer:sum(packetBytes) 816852
scalar SingleCell_D2D.ueD2DRx[0].cellularNic.pdcp receivedPacketFromLowerLayer:count 1420
scalar SingleCell_D2D.ueD2DRx[0].cellularNic.pdcp receivedPacketFromLowerLayer:sum(packetBytes) 818272
scalar SingleCell_D2D.ueD2DRx[0].cellularNic.pdcp receivedPacketFromUpperLayer:count 1419
scalar SingleCell_D2D.ueD2DRx[0].cellularNic.pdcp receivedPacketFromUpperLayer:sum(packetBytes) 56764
scalar SingleCell_D2D.ueD2DRx[0].cellularNic.rlc.tm rlcPacketLossUl:mean -nan
scalar SingleCell_D2D.ueD2DRx[0].cellularNic.rlc.tm rlcPacketLossUl:sum 0
scalar SingleCell_D2D.ueD2DRx[0].cellularNic.rlc.tm rlcPacketLossDl:mean -nan
scalar SingleCell_D2D.ueD2DRx[0].cellularNic.rlc.tm rlcPacketLossDl:sum 0
scalar SingleCell_D2D.ueD2DRx[0].cellularNic.rlc.tm sentPacketToLowerLayer:count 0
scalar SingleCell_D2D.ueD2DRx[0].cellularNic.rlc.tm sentPacketToLowerLayer:sum(packetBytes) 0
scalar SingleCell_D2D.ueD2DRx[0].cellularNic.rlc.tm sentPacketToUpperLayer:count 0
scalar SingleCell_D2D.ueD2DRx[0].cellularNic.rlc.tm sentPacketToUpperLayer:sum(packetBytes) 0
scalar SingleCell_D2D.ueD2DRx[0].cellularNic.rlc.tm receivedPacketFromLowerLayer:count 0
scalar SingleCell_D2D.ueD2DRx[0].cellularNic.rlc.tm receivedPacketFromLowerLayer:sum(packetBytes) 0
scalar SingleCell_D2D.ueD2DRx[0].cellularNic.rlc.tm receivedPacketFromUpperLayer:count 0
scalar SingleCell_D2D.ueD2DRx[0].cellularNic.rlc.tm receivedPacketFromUpperLayer:sum(packetBytes) 0
scalar SingleCell_D2D.ueD2DRx[0].cellularNic.rlc.um rlcCellThroughputD2D:simu5g_rateavg -nan
scalar SingleCell_D2D.ueD2DRx[0].cellularNic.rlc.um rlcPduThroughputD2D:simu5g_rateavg 0
scalar SingleCell_D2D.ueD2DRx[0].cellularNic.rlc.um rlcPduDelayD2D:mean 0.0044923076923076956
scalar SingleCell_D2D.ueD2DRx[0].cellularNic.rlc.um rlcThroughputD2D:simu5g_rateavg 131404.05155865109
scalar SingleCell_D2D.ueD2DRx[0].cellularNic.rlc.um rlcDelayD2D:mean 0.016224545685919935
scalar SingleCell_D2D.ueD2DRx[0].cellularNic.rlc.um rlcCellThroughputUl:simu5g_rateavg -nan
scalar SingleCell_D2D.ueD2DRx[0].cellularNic.rlc.um rlcCellThroughputDl:simu5g_rateavg -nan
scalar SingleCell_D2D.ueD2DRx[0].cellularNic.rlc.um rlcPduThroughputUl:simu5g_rateavg 0
scalar SingleCell_D2D.ueD2DRx[0].cellularNic.rlc.um rlcPduThroughputDl:simu5g_rateavg 0
scalar SingleCell_D2D.ueD2DRx[0].cellularNic.rlc.um rlcPduDelayUl:mean 0.0040000000000000027
scalar SingleCell_D2D.ueD2DRx[0].cellularNic.rlc.um rlcPduDelayDl:mean 0.0040000000000000027
scalar SingleCell_D2D.ueD2DRx[0].cellularNic.rlc.um rlcThroughputUl:simu5g_rateavg 205.25310252575392
scalar SingleCell_D2D.ueD2DRx[0].cellularNic.rlc.um rlcThroughputDl:simu5g_rateavg 2982.3831628034563
scalar SingleCell_D2D.ueD2DRx[0].cellularNic.rlc.um rlcDelayUl:mean 0.011594306049822024
scalar SingleCell_D2D.ueD2DRx[0].cellularNic.rlc.um rlcDelayDl:mean 0.022243816254416911
scalar SingleCell_D2D.ueD2DRx[0].cellularNic.rlc.um sentPacketToLowerLayer:count 183
scalar SingleCell_D2D.ueD2DRx[0].cellularNic.rlc.um sentPacketToLowerLayer:sum(packetBytes) 57975
scalar SingleCell_D2D.ueD2DRx[0].cellularNic.rlc.um sentPacketToUpperLayer:count 1420
scalar SingleCell_D2D.ueD2DRx[0].cellularNic.rlc.um sentPacketToUpperLayer:sum(packetBytes) 818272
scalar SingleCell_D2D.ueD2DRx[0].cellularNic.rlc.um receivedPacketFromLowerLayer:count 287
scalar SingleCell_D2D.ueD2DRx[0].cellularNic.rlc.um receivedPacketFromLowerLayer:sum(packetBytes) 818846
scalar SingleCell_D2D.ueD2DRx[0].cellularNic.rlc.um receivedPacketFromUpperLayer:count 1419
scalar SingleCell_D2D.ueD2DRx[0].cellularNic.rlc.um receivedPacketFromUpperLayer:sum(packetBytes) 58183
scalar SingleCell_D2D.ueD2DRx[0].cellularNic.rlc.am rlcPacketLossTotal:mean -nan
scalar SingleCell_D2D.ueD2DRx[0].cellularNic.rlc.am rlcCellThroughputUl:simu5g_rateavg -nan
scalar SingleCell_D2D.ueD2DRx[0].cellularNic.rlc.am rlcCellThroughputDl:simu5g_rateavg -nan
scalar SingleCell_D2D.ueD2DRx[0].cellularNic.rlc.am rlcPduThroughputUl:simu5g_rateavg -nan
scalar SingleCell_D2D.ueD2DRx[0].cellularNic.rlc.am rlcPduThroughputDl:simu5g_rateavg -nan
scalar SingleCell_D2D.ueD2DRx[0].cellularNic.rlc.am rlcPduDelayUl:mean -nan
scalar SingleCell_D2D.ueD2DRx[0].cellularNic.rlc.am rlcPduDelayDl:mean -nan
scalar SingleCell_D2D.ueD2DRx[0].cellularNic.rlc.am rlcThroughputUl:simu5g_rateavg -nan
scalar SingleCell_D2D.ueD2DRx[0].cellularNic.rlc.am rlcThroughputDl:simu5g_rateavg -nan
scalar SingleCell_D2D.ueD2DRx[0].cellularNic.rlc.am rlcDelayUl:mean -nan
scalar SingleCell_D2D.ueD2DRx[0].cellularNic.rlc.am rlcDelayDl:mean -nan
scalar SingleCell_D2D.ueD2DRx[0].cellularNic.rlc.am rlcPduPacketLossUl:mean -nan
scalar SingleCell_D2D.ueD2DRx[0].cellularNic.rlc.am rlcPduPacketLossDl:mean -nan
scalar SingleCell_D2D.ueD2DRx[0].cellularNic.rlc.am rlcPacketLossUl:mean -nan
scalar SingleCell_D2D.ueD2DRx[0].cellularNic.rlc.am rlcPacketLossDl:mean -nan
scalar SingleCell_D2D.ueD2DRx[0].cellularNic.rlc.am rlcCellPacketLossUl:mean -nan
scalar SingleCell_D2D.ueD2DRx[0].cellularNic.rlc.am rlcCellPacketLossDl:mean -nan
scalar SingleCell_D2D.ueD2DRx[0].cellularNic.mac harqErrorRate_4th_D2D:mean -nan
scalar SingleCell_D2D.ueD2DRx[0].cellularNic.mac harqErrorRate_3rd_D2D:mean 0
scalar SingleCell_D2D.ueD2DRx[0].cellularNic.mac harqErrorRate_2nd_D2D:mean 0.090909090909090912
scalar SingleCell_D2D.ueD2DRx[0].cellularNic.mac harqErrorRate_1st_D2D:mean 0.056410256410256411
scalar SingleCell_D2D.ueD2DRx[0].cellularNic.mac harqErrorRateD2D:mean 0.057971014492753624
scalar SingleCell_D2D.ueD2DRx[0].cellularNic.mac macPacketLossD2D:mean 0
scalar SingleCell_D2D.ueD2DRx[0].cellularNic.mac macDelayD2D:mean 0.0044923076923076956
scalar SingleCell_D2D.ueD2DRx[0].cellularNic.mac macThroughputD2D:simu5g_rateavg 133634.70535547595
scalar SingleCell_D2D.ueD2DRx[0].cellularNic.mac harqTxAttemptsUl:mean 1
scalar SingleCell_D2D.ueD2DRx[0].cellularNic.mac harqTxAttemptsDl:mean 1
scalar SingleCell_D2D.ueD2DRx[0].cellularNic.mac harqErrorRate_4th_Ul:mean -nan
scalar SingleCell_D2D.ueD2DRx[0].cellularNic.mac harqErrorRate_4th_Dl:mean -nan
scalar SingleCell_D2D.ueD2DRx[0].cellularNic.mac harqErrorRate_3rd_Ul:mean -nan
scalar SingleCell_D2D.ueD2DRx[0].cellularNic.mac harqErrorRate_3rd_Dl:mean -nan
scalar SingleCell_D2D.ueD2DRx[0].cellularNic.mac harqErrorRate_2nd_Ul:mean -nan
scalar SingleCell_D2D.ueD2DRx[0].cellularNic.mac harqErrorRate_2nd_Dl:mean -nan
scalar SingleCell_D2D.ueD2DRx[0].cellularNic.mac harqErrorRate_1st_Ul:mean 0
scalar SingleCell_D2D.ueD2DRx[0].cellularNic.mac harqErrorRate_1st_Dl:mean 0
scalar SingleCell_D2D.ueD2DRx[0].cellularNic.mac harqErrorRateUl:mean 0
scalar SingleCell_D2D.ueD2DRx[0].cellularNic.mac harqErrorRateDl:mean 0
scalar SingleCell_D2D.ueD2DRx[0].cellularNic.mac macCellPacketLossUl:mean -nan
scalar SingleCell_D2D.ueD2DRx[0].cellularNic.mac macCellPacketLossDl:mean -nan
scalar SingleCell_D2D.ueD2DRx[0].cellularNic.mac macPacketLossUl:mean 0
scalar SingleCell_D2D.ueD2DRx[0].cellularNic.mac macPacketLossDl:mean 0
scalar SingleCell_D2D.ueD2DRx[0].cellularNic.mac macThroughputUl:simu5g_rateavg 287.06419470758772
scalar SingleCell_D2D.ueD2DRx[0].cellularNic.mac macThroughputDl:simu5g_rateavg 3041.7350320299229
scalar SingleCell_D2D.ueD2DRx[0].cellularNic.mac macDelayUl:mean 0.0040000000000000027
scalar SingleCell_D2D.ueD2DRx[0].cellularNic.mac macDelayDl:mean 0.0040000000000000027
scalar SingleCell_D2D.ueD2DRx[0].cellularNic.mac macCellThroughputUl:simu5g_rateavg -nan
scalar SingleCell_D2D.ueD2DRx[0].cellularNic.mac macCellThroughputDl:simu5g_rateavg -nan
scalar SingleCell_D2D.ueD2DRx[0].cellularNic.mac rcvdD2DModeSwitchNotification:count 1
scalar SingleCell_D2D.ueD2DRx[0].cellularNic.mac sentPacketToLowerLayer:count 1106
scalar SingleCell_D2D.ueD2DRx[0].cellularNic.mac sentPacketToLowerLayer:sum(packetBytes) 60010
scalar SingleCell_D2D.ueD2DRx[0].cellularNic.mac sentPacketToUpperLayer:count 472
scalar SingleCell_D2D.ueD2DRx[0].cellularNic.mac sentPacketToUpperLayer:sum(packetBytes) 819031
scalar SingleCell_D2D.ueD2DRx[0].cellularNic.mac receivedPacketFromLowerLayer:count 1338
scalar SingleCell_D2D.ueD2DRx[0].cellularNic.mac receivedPacketFromLowerLayer:sum(packetBytes) 869611
scalar SingleCell_D2D.ueD2DRx[0].cellularNic.mac receivedPacketFromUpperLayer:count 1602
scalar SingleCell_D2D.ueD2DRx[0].cellularNic.mac receivedPacketFromUpperLayer:sum(packetBytes) 116158
scalar SingleCell_D2D.ueD2DRx[0].cellularNic.mac macBufferOverFlowD2D:mean -nan
scalar SingleCell_D2D.ueD2DRx[0].cellularNic.mac macBufferOverFlowUl:mean -nan
scalar SingleCell_D2D.ueD2DRx[0].cellularNic.mac macBufferOverFlowDl:mean -nan
scalar SingleCell_D2D.ueD2DRx[0].cellularNic.phy distance:mean 106.98252357208288
scalar SingleCell_D2D.ueD2DRx[0].cellularNic.phy averageCqiD2D:mean 14
scalar SingleCell_D2D.ueD2DRx[0].cellularNic.phy averageCqiUl:mean 15
scalar SingleCell_D2D.ueD2DRx[0].cellularNic.phy averageCqiUl:count 268
scalar SingleCell_D2D.ueD2DRx[0].cellularNic.phy averageCqiDl:mean 15
scalar SingleCell_D2D.ueD2DRx[0].cellularNic.phy averageCqiDl:count 92
scalar SingleCell_D2D.ueD2DRx[0].cellularNic.channelModel[0] measuredSinrUl:mean 42.683562462121564
scalar SingleCell_D2D.ueD2DRx[0].cellularNic.channelModel[0] measuredSinrDl:mean 60.683562462121245
scalar SingleCell_D2D.ueD2DRx[0].cellularNic.channelModel[0] rcvdSinrD2D:mean -nan
scalar SingleCell_D2D.ueD2DRx[0].cellularNic.channelModel[0] rcvdSinrUl:mean 40.719841758806382
scalar SingleCell_D2D.ueD2DRx[0].cellularNic.channelModel[0] rcvdSinrDl:mean 59.500211652972787
scalar SingleCell_D2D.ueD2DRx[0].cellularNic packetDropInterfaceDown:count 0
scalar SingleCell_D2D.ueD2DRx[0].cellularNic packetDropInterfaceDown:sum(packetBytes) 0
scalar SingleCell_D2D.ueD2DRx[0].cellularNic packetDropNoCarrier:count 0
scalar SingleCell_D2D.ueD2DRx[0].cellularNic packetDropNoCarrier:sum(packetBytes) 0
scalar SingleCell_D2D.ueD2DRx[0].encap pauseSent:count 0
scalar SingleCell_D2D.ueD2DRx[0].encap pauseSent:sum 0
scalar SingleCell_D2D.ueD2DRx[0].encap decapPk:count 0
scalar SingleCell_D2D.ueD2DRx[0].encap decapPk:sum(packetBytes) 0
scalar SingleCell_D2D.ueD2DRx[0].encap encapPk:count 0
scalar SingleCell_D2D.ueD2DRx[0].encap encapPk:sum(packetBytes) 0
scalar SingleCell_D2D.ueD2DRx[0].ipv4.ip packetDropAddressResolutionFailed:count 0
scalar SingleCell_D2D.ueD2DRx[0].ipv4.ip packetDropAddressResolutionFailed:sum(packetBytes) 0
scalar SingleCell_D2D.ueD2DRx[0].ipv4.ip packetDropHopLimitReached:count 0
scalar SingleCell_D2D.ueD2DRx[0].ipv4.ip packetDropHopLimitReached:sum(packetBytes) 0
scalar SingleCell_D2D.ueD2DRx[0].ipv4.ip packetDropForwardingDisabled:count 0
scalar SingleCell_D2D.ueD2DRx[0].ipv4.ip packetDropForwardingDisabled:sum(packetBytes) 0
scalar SingleCell_D2D.ueD2DRx[0].ipv4.ip packetDropNoInterfaceFound:count 0
scalar SingleCell_D2D.ueD2DRx[0].ipv4.ip packetDropNoInterfaceFound:sum(packetBytes) 0
scalar SingleCell_D2D.ueD2DRx[0].ipv4.ip packetDropNoRouteFound:count 0
scalar SingleCell_D2D.ueD2DRx[0].ipv4.ip packetDropNoRouteFound:sum(packetBytes) 0
scalar SingleCell_D2D.ueD2DRx[0].ipv4.ip packetDropUndefined:count 0
scalar SingleCell_D2D.ueD2DRx[0].ipv4.ip packetDropUndefined:sum(packetBytes) 0
scalar SingleCell_D2D.ueD2DRx[0].ipv4.arp arpResolutionFailed:count 0
scalar SingleCell_D2D.ueD2DRx[0].ipv4.arp arpResolutionCompleted:count 0
scalar SingleCell_D2D.ueD2DRx[0].ipv4.arp arpResolutionInitiated:count 0
scalar SingleCell_D2D.ueD2DRx[0].ipv4.arp arpReplySent:count 0
scalar SingleCell_D2D.ueD2DRx[0].ipv4.arp arpReplySent:sum(packetBytes) 0
scalar SingleCell_D2D.ueD2DRx[0].ipv4.arp arpRequestSent:count 0
scalar SingleCell_D2D.ueD2DRx[0].ipv4.arp arpRequestSent:sum(packetBytes) 0
scalar SingleCell_D2D.ueD2DRx[0].udp packetReceived:count 0
scalar SingleCell_D2D.ueD2DRx[0].udp packetReceived:sum(packetBytes) 0
scalar SingleCell_D2D.ueD2DRx[0].udp packetSent:count 0
scalar SingleCell_D2D.ueD2DRx[0].udp packetSent:sum(packetBytes) 0
scalar SingleCell_D2D.ueD2DRx[0].udp passedUpPk:count 0
scalar SingleCell_D2D.ueD2DRx[0].udp droppedPkWrongPort:count 0
scalar SingleCell_D2D.ueD2DRx[0].udp droppedPkBadChecksum:count 0
scalar SingleCell_D2D.ueD2DRx[0].app[0].thread_17 packetReceived:count 1417
scalar SingleCell_D2D.ueD2DRx[0].app[0].thread_17 packetReceived:sum(packetBytes) 759512
scalar SingleCell_D2D.ueD2DRx[0].app[0] bytesRcvd 759512
scalar SingleCell_D2D.ueD2DRx[0].app[0] packetReceived:count 1417
scalar SingleCell_D2D.ueD2DRx[0].app[0] packetReceived:sum(packetBytes) 759512
scalar SingleCell_D2D.server.ppp[0].queue queueingTime:histogram:count 0
scalar SingleCell_D2D.server.ppp[0].queue queueingTime:histogram:sumweights 0
scalar SingleCell_D2D.server.ppp[0].queue queueingTime:histogram:mean -nan
scalar SingleCell_D2D.server.ppp[0].queue queueingTime:histogram:stddev nan
scalar SingleCell_D2D.server.ppp[0].queue queueingTime:histogram:min nan
scalar SingleCell_D2D.server.ppp[0].queue queueingTime:histogram:max nan
scalar SingleCell_D2D.server.ppp[0].queue queueingTime:histogram:numbins 1
scalar SingleCell_D2D.server.ppp[0].queue queueingTime:histogram:rangemin 0
scalar SingleCell_D2D.server.ppp[0].queue queueingTime:histogram:rangemax 1
scalar SingleCell_D2D.server.ppp[0].queue queueingTime:histogram:underflows 0
scalar SingleCell_D2D.server.ppp[0].queue queueingTime:histogram:overflows 0
scalar SingleCell_D2D.server.ppp[0].queue outgoingPacketLengths:histogram:count 0
scalar SingleCell_D2D.server.ppp[0].queue outgoingPacketLengths:histogram:sumweights 0
scalar SingleCell_D2D.server.ppp[0].queue outgoingPacketLengths:histogram:mean -nan
scalar SingleCell_D2D.server.ppp[0].queue outgoingPacketLengths:histogram:stddev nan
scalar SingleCell_D2D.server.ppp[0].queue outgoingPacketLengths:histogram:min nan
scalar SingleCell_D2D.server.ppp[0].queue outgoingPacketLengths:histogram:max nan
scalar SingleCell_D2D.server.ppp[0].queue outgoingPacketLengths:histogram:numbins 1
scalar SingleCell_D2D.server.ppp[0].queue outgoingPacketLengths:histogram:rangemin 0
scalar SingleCell_D2D.server.ppp[0].queue outgoingPacketLengths:histogram:rangemax 1
scalar SingleCell_D2D.server.ppp[0].queue outgoingPacketLengths:histogram:underflows 0
scalar SingleCell_D2D.server.ppp[0].queue outgoingPacketLengths:histogram:overflows 0
scalar SingleCell_D2D.server.ppp[0].queue flowQueueingTime:histogram:count 0
scalar SingleCell_D2D.server.ppp[0].queue flowQueueingTime:histogram:sumweights 0
scalar SingleCell_D2D.server.ppp[0].queue flowQueueingTime:histogram:mean -nan
scalar SingleCell_D2D.server.ppp[0].queue flowQueueingTime:histogram:stddev nan
scalar SingleCell_D2D.server.ppp[0].queue flowQueueingTime:histogram:min nan
scalar SingleCell_D2D.server.ppp[0].queue flowQueueingTime:histogram:max nan
scalar SingleCell_D2D.server.ppp[0].queue flowQueueingTime:histogram:numbins 1
scalar SingleCell_D2D.server.ppp[0].queue flowQueueingTime:histogram:rangemin 0
scalar SingleCell_D2D.server.ppp[0].queue flowQueueingTime:histogram:rangemax 1
scalar SingleCell_D2D.server.ppp[0].queue flowQueueingTime:histogram:underflows 0
scalar SingleCell_D2D.server.ppp[0].queue flowQueueingTime:histogram:overflows 0
scalar SingleCell_D2D.server.ppp[0].queue incomingPacketLengths:histogram:count 0
scalar SingleCell_D2D.server.ppp[0].queue incomingPacketLengths:histogram:sumweights 0
scalar SingleCell_D2D.server.ppp[0].queue incomingPacketLengths:histogram:mean -nan
scalar SingleCell_D2D.server.ppp[0].queue incomingPacketLengths:histogram:stddev nan
scalar SingleCell_D2D.server.ppp[0].queue incomingPacketLengths:histogram:min nan
scalar SingleCell_D2D.server.ppp[0].queue incomingPacketLengths:histogram:max nan
scalar SingleCell_D2D.server.ppp[0].queue incomingPacketLengths:histogram:numbins 1
scalar SingleCell_D2D.server.ppp[0].queue incomingPacketLengths:histogram:rangemin 0
scalar SingleCell_D2D.server.ppp[0].queue incomingPacketLengths:histogram:rangemax 1
scalar SingleCell_D2D.server.ppp[0].queue incomingPacketLengths:histogram:underflows 0
scalar SingleCell_D2D.server.ppp[0].queue incomingPacketLengths:histogram:overflows 0
scalar SingleCell_D2D.router.ppp[0].queue queueingTime:histogram:count 0
scalar SingleCell_D2D.router.ppp[0].queue queueingTime:histogram:sumweights 0
scalar SingleCell_D2D.router.ppp[0].queue queueingTime:histogram:mean -nan
scalar SingleCell_D2D.router.ppp[0].queue queueingTime:histogram:stddev nan
scalar SingleCell_D2D.router.ppp[0].queue queueingTime:histogram:min nan
scalar SingleCell_D2D.router.ppp[0].queue queueingTime:histogram:max nan
scalar SingleCell_D2D.router.ppp[0].queue queueingTime:histogram:numbins 1
scalar SingleCell_D2D.router.ppp[0].queue queueingTime:histogram:rangemin 0
scalar SingleCell_D2D.router.ppp[0].queue queueingTime:histogram:rangemax 1
scalar SingleCell_D2D.router.ppp[0].queue queueingTime:histogram:underflows 0
scalar SingleCell_D2D.router.ppp[0].queue queueingTime:histogram:overflows 0
scalar SingleCell_D2D.router.ppp[0].queue outgoingPacketLengths:histogram:count 0
scalar SingleCell_D2D.router.ppp[0].queue outgoingPacketLengths:histogram:sumweights 0
scalar SingleCell_D2D.router.ppp[0].queue outgoingPacketLengths:histogram:mean -nan
scalar SingleCell_D2D.router.ppp[0].queue outgoingPacketLengths:histogram:stddev nan
scalar SingleCell_D2D.router.ppp[0].queue outgoingPacketLengths:histogram:min nan
scalar SingleCell_D2D.router.ppp[0].queue outgoingPacketLengths:histogram:max nan
scalar SingleCell_D2D.router.ppp[0].queue outgoingPacketLengths:histogram:numbins 1
scalar SingleCell_D2D.router.ppp[0].queue outgoingPacketLengths:histogram:rangemin 0
scalar SingleCell_D2D.router.ppp[0].queue outgoingPacketLengths:histogram:rangemax 1
scalar SingleCell_D2D.router.ppp[0].queue outgoingPacketLengths:histogram:underflows 0
scalar SingleCell_D2D.router.ppp[0].queue outgoingPacketLengths:histogram:overflows 0
scalar SingleCell_D2D.router.ppp[0].queue flowQueueingTime:histogram:count 0
scalar SingleCell_D2D.router.ppp[0].queue flowQueueingTime:histogram:sumweights 0
scalar SingleCell_D2D.router.ppp[0].queue flowQueueingTime:histogram:mean -nan
scalar SingleCell_D2D.router.ppp[0].queue flowQueueingTime:histogram:stddev nan
scalar SingleCell_D2D.router.ppp[0].queue flowQueueingTime:histogram:min nan
scalar SingleCell_D2D.router.ppp[0].queue flowQueueingTime:histogram:max nan
scalar SingleCell_D2D.router.ppp[0].queue flowQueueingTime:histogram:numbins 1
scalar SingleCell_D2D.router.ppp[0].queue flowQueueingTime:histogram:rangemin 0
scalar SingleCell_D2D.router.ppp[0].queue flowQueueingTime:histogram:rangemax 1
scalar SingleCell_D2D.router.ppp[0].queue flowQueueingTime:histogram:underflows 0
scalar SingleCell_D2D.router.ppp[0].queue flowQueueingTime:histogram:overflows 0
scalar SingleCell_D2D.router.ppp[0].queue incomingPacketLengths:histogram:count 0
scalar SingleCell_D2D.router.ppp[0].queue incomingPacketLengths:histogram:sumweights 0
scalar SingleCell_D2D.router.ppp[0].queue incomingPacketLengths:histogram:mean -nan
scalar SingleCell_D2D.router.ppp[0].queue incomingPacketLengths:histogram:stddev nan
scalar SingleCell_D2D.router.ppp[0].queue incomingPacketLengths:histogram:min nan
scalar SingleCell_D2D.router.ppp[0].queue incomingPacketLengths:histogram:max nan
scalar SingleCell_D2D.router.ppp[0].queue incomingPacketLengths:histogram:numbins 1
scalar SingleCell_D2D.router.ppp[0].queue incomingPacketLengths:histogram:rangemin 0
scalar SingleCell_D2D.router.ppp[0].queue incomingPacketLengths:histogram:rangemax 1
scalar SingleCell_D2D.router.ppp[0].queue incomingPacketLengths:histogram:underflows 0
scalar SingleCell_D2D.router.ppp[0].queue incomingPacketLengths:histogram:overflows 0
scalar SingleCell_D2D.router.ppp[1].queue queueingTime:histogram:count 0
scalar SingleCell_D2D.router.ppp[1].queue queueingTime:histogram:sumweights 0
scalar SingleCell_D2D.router.ppp[1].queue queueingTime:histogram:mean -nan
scalar SingleCell_D2D.router.ppp[1].queue queueingTime:histogram:stddev nan
scalar SingleCell_D2D.router.ppp[1].queue queueingTime:histogram:min nan
scalar SingleCell_D2D.router.ppp[1].queue queueingTime:histogram:max nan
scalar SingleCell_D2D.router.ppp[1].queue queueingTime:histogram:numbins 1
scalar SingleCell_D2D.router.ppp[1].queue queueingTime:histogram:rangemin 0
scalar SingleCell_D2D.router.ppp[1].queue queueingTime:histogram:rangemax 1
scalar SingleCell_D2D.router.ppp[1].queue queueingTime:histogram:underflows 0
scalar SingleCell_D2D.router.ppp[1].queue queueingTime:histogram:overflows 0
scalar SingleCell_D2D.router.ppp[1].queue outgoingPacketLengths:histogram:count 0
scalar SingleCell_D2D.router.ppp[1].queue outgoingPacketLengths:histogram:sumweights 0
scalar SingleCell_D2D.router.ppp[1].queue outgoingPacketLengths:histogram:mean -nan
scalar SingleCell_D2D.router.ppp[1].queue outgoingPacketLengths:histogram:stddev nan
scalar SingleCell_D2D.router.ppp[1].queue outgoingPacketLengths:histogram:min nan
scalar SingleCell_D2D.router.ppp[1].queue outgoingPacketLengths:histogram:max nan
scalar SingleCell_D2D.router.ppp[1].queue outgoingPacketLengths:histogram:numbins 1
scalar SingleCell_D2D.router.ppp[1].queue outgoingPacketLengths:histogram:rangemin 0
scalar SingleCell_D2D.router.ppp[1].queue outgoingPacketLengths:histogram:rangemax 1
scalar SingleCell_D2D.router.ppp[1].queue outgoingPacketLengths:histogram:underflows 0
scalar SingleCell_D2D.router.ppp[1].queue outgoingPacketLengths:histogram:overflows 0
scalar SingleCell_D2D.router.ppp[1].queue flowQueueingTime:histogram:count 0
scalar SingleCell_D2D.router.ppp[1].queue flowQueueingTime:histogram:sumweights 0
scalar SingleCell_D2D.router.ppp[1].queue flowQueueingTime:histogram:mean -nan
scalar SingleCell_D2D.router.ppp[1].queue flowQueueingTime:histogram:stddev nan
scalar SingleCell_D2D.router.ppp[1].queue flowQueueingTime:histogram:min nan
scalar SingleCell_D2D.router.ppp[1].queue flowQueueingTime:histogram:max nan
scalar SingleCell_D2D.router.ppp[1].queue flowQueueingTime:histogram:numbins 1
scalar SingleCell_D2D.router.ppp[1].queue flowQueueingTime:histogram:rangemin 0
scalar SingleCell_D2D.router.ppp[1].queue flowQueueingTime:histogram:rangemax 1
scalar SingleCell_D2D.router.ppp[1].queue flowQueueingTime:histogram:underflows 0
scalar SingleCell_D2D.router.ppp[1].queue flowQueueingTime:histogram:overflows 0
scalar SingleCell_D2D.router.ppp[1].queue incomingPacketLengths:histogram:count 0
scalar SingleCell_D2D.router.ppp[1].queue incomingPacketLengths:histogram:sumweights 0
scalar SingleCell_D2D.router.ppp[1].queue incomingPacketLengths:histogram:mean -nan
scalar SingleCell_D2D.router.ppp[1].queue incomingPacketLengths:histogram:stddev nan
scalar SingleCell_D2D.router.ppp[1].queue incomingPacketLengths:histogram:min nan
scalar SingleCell_D2D.router.ppp[1].queue incomingPacketLengths:histogram:max nan
scalar SingleCell_D2D.router.ppp[1].queue incomingPacketLengths:histogram:numbins 1
scalar SingleCell_D2D.router.ppp[1].queue incomingPacketLengths:histogram:rangemin 0
scalar SingleCell_D2D.router.ppp[1].queue incomingPacketLengths:histogram:rangemax 1
scalar SingleCell_D2D.router.ppp[1].queue incomingPacketLengths:histogram:underflows 0
scalar SingleCell_D2D.router.ppp[1].queue incomingPacketLengths:histogram:overflows 0
scalar SingleCell_D2D.pgw.ppp[0].queue queueingTime:histogram:count 0
scalar SingleCell_D2D.pgw.ppp[0].queue queueingTime:histogram:sumweights 0
scalar SingleCell_D2D.pgw.ppp[0].queue queueingTime:histogram:mean -nan
scalar SingleCell_D2D.pgw.ppp[0].queue queueingTime:histogram:stddev nan
scalar SingleCell_D2D.pgw.ppp[0].queue queueingTime:histogram:min nan
scalar SingleCell_D2D.pgw.ppp[0].queue queueingTime:histogram:max nan
scalar SingleCell_D2D.pgw.ppp[0].queue queueingTime:histogram:numbins 1
scalar SingleCell_D2D.pgw.ppp[0].queue queueingTime:histogram:rangemin 0
scalar SingleCell_D2D.pgw.ppp[0].queue queueingTime:histogram:rangemax 1
scalar SingleCell_D2D.pgw.ppp[0].queue queueingTime:histogram:underflows 0
scalar SingleCell_D2D.pgw.ppp[0].queue queueingTime:histogram:overflows 0
scalar SingleCell_D2D.pgw.ppp[0].queue outgoingPacketLengths:histogram:count 0
scalar SingleCell_D2D.pgw.ppp[0].queue outgoingPacketLengths:histogram:sumweights 0
scalar SingleCell_D2D.pgw.ppp[0].queue outgoingPacketLengths:histogram:mean -nan
scalar SingleCell_D2D.pgw.ppp[0].queue outgoingPacketLengths:histogram:stddev nan
scalar SingleCell_D2D.pgw.ppp[0].queue outgoingPacketLengths:histogram:min nan
scalar SingleCell_D2D.pgw.ppp[0].queue outgoingPacketLengths:histogram:max nan
scalar SingleCell_D2D.pgw.ppp[0].queue outgoingPacketLengths:histogram:numbins 1
scalar SingleCell_D2D.pgw.ppp[0].queue outgoingPacketLengths:histogram:rangemin 0
scalar SingleCell_D2D.pgw.ppp[0].queue outgoingPacketLengths:histogram:rangemax 1
scalar SingleCell_D2D.pgw.ppp[0].queue outgoingPacketLengths:histogram:underflows 0
scalar SingleCell_D2D.pgw.ppp[0].queue outgoingPacketLengths:histogram:overflows 0
scalar SingleCell_D2D.pgw.ppp[0].queue flowQueueingTime:histogram:count 0
scalar SingleCell_D2D.pgw.ppp[0].queue flowQueueingTime:histogram:sumweights 0
scalar SingleCell_D2D.pgw.ppp[0].queue flowQueueingTime:histogram:mean -nan
scalar SingleCell_D2D.pgw.ppp[0].queue flowQueueingTime:histogram:stddev nan
scalar SingleCell_D2D.pgw.ppp[0].queue flowQueueingTime:histogram:min nan
scalar SingleCell_D2D.pgw.ppp[0].queue flowQueueingTime:histogram:max nan
scalar SingleCell_D2D.pgw.ppp[0].queue flowQueueingTime:histogram:numbins 1
scalar SingleCell_D2D.pgw.ppp[0].queue flowQueueingTime:histogram:rangemin 0
scalar SingleCell_D2D.pgw.ppp[0].queue flowQueueingTime:histogram:rangemax 1
scalar SingleCell_D2D.pgw.ppp[0].queue flowQueueingTime:histogram:underflows 0
scalar SingleCell_D2D.pgw.ppp[0].queue flowQueueingTime:histogram:overflows 0
scalar SingleCell_D2D.pgw.ppp[0].queue incomingPacketLengths:histogram:count 0
scalar SingleCell_D2D.pgw.ppp[0].queue incomingPacketLengths:histogram:sumweights 0
scalar SingleCell_D2D.pgw.ppp[0].queue incomingPacketLengths:histogram:mean -nan
scalar SingleCell_D2D.pgw.ppp[0].queue incomingPacketLengths:histogram:stddev nan
scalar SingleCell_D2D.pgw.ppp[0].queue incomingPacketLengths:histogram:min nan
scalar SingleCell_D2D.pgw.ppp[0].queue incomingPacketLengths:histogram:max nan
scalar SingleCell_D2D.pgw.ppp[0].queue incomingPacketLengths:histogram:numbins 1
scalar SingleCell_D2D.pgw.ppp[0].queue incomingPacketLengths:histogram:rangemin 0
scalar SingleCell_D2D.pgw.ppp[0].queue incomingPacketLengths:histogram:rangemax 1
scalar SingleCell_D2D.pgw.ppp[0].queue incomingPacketLengths:histogram:underflows 0
scalar SingleCell_D2D.pgw.ppp[0].queue incomingPacketLengths:histogram:overflows 0
scalar SingleCell_D2D.pgw.pppIf.queue queueingTime:histogram:count 0
scalar SingleCell_D2D.pgw.pppIf.queue queueingTime:histogram:sumweights 0
scalar SingleCell_D2D.pgw.pppIf.queue queueingTime:histogram:mean -nan
scalar SingleCell_D2D.pgw.pppIf.queue queueingTime:histogram:stddev nan
scalar SingleCell_D2D.pgw.pppIf.queue queueingTime:histogram:min nan
scalar SingleCell_D2D.pgw.pppIf.queue queueingTime:histogram:max nan
scalar SingleCell_D2D.pgw.pppIf.queue queueingTime:histogram:numbins 1
scalar SingleCell_D2D.pgw.pppIf.queue queueingTime:histogram:rangemin 0
scalar SingleCell_D2D.pgw.pppIf.queue queueingTime:histogram:rangemax 1
scalar SingleCell_D2D.pgw.pppIf.queue queueingTime:histogram:underflows 0
scalar SingleCell_D2D.pgw.pppIf.queue queueingTime:histogram:overflows 0
scalar SingleCell_D2D.pgw.pppIf.queue outgoingPacketLengths:histogram:count 0
scalar SingleCell_D2D.pgw.pppIf.queue outgoingPacketLengths:histogram:sumweights 0
scalar SingleCell_D2D.pgw.pppIf.queue outgoingPacketLengths:histogram:mean -nan
scalar SingleCell_D2D.pgw.pppIf.queue outgoingPacketLengths:histogram:stddev nan
scalar SingleCell_D2D.pgw.pppIf.queue outgoingPacketLengths:histogram:min nan
scalar SingleCell_D2D.pgw.pppIf.queue outgoingPacketLengths:histogram:max nan
scalar SingleCell_D2D.pgw.pppIf.queue outgoingPacketLengths:histogram:numbins 1
scalar SingleCell_D2D.pgw.pppIf.queue outgoingPacketLengths:histogram:rangemin 0
scalar SingleCell_D2D.pgw.pppIf.queue outgoingPacketLengths:histogram:rangemax 1
scalar SingleCell_D2D.pgw.pppIf.queue outgoingPacketLengths:histogram:underflows 0
scalar SingleCell_D2D.pgw.pppIf.queue outgoingPacketLengths:histogram:overflows 0
scalar SingleCell_D2D.pgw.pppIf.queue flowQueueingTime:histogram:count 0
scalar SingleCell_D2D.pgw.pppIf.queue flowQueueingTime:histogram:sumweights 0
scalar SingleCell_D2D.pgw.pppIf.queue flowQueueingTime:histogram:mean -nan
scalar SingleCell_D2D.pgw.pppIf.queue flowQueueingTime:histogram:stddev nan
scalar SingleCell_D2D.pgw.pppIf.queue flowQueueingTime:histogram:min nan
scalar SingleCell_D2D.pgw.pppIf.queue flowQueueingTime:histogram:max nan
scalar SingleCell_D2D.pgw.pppIf.queue flowQueueingTime:histogram:numbins 1
scalar SingleCell_D2D.pgw.pppIf.queue flowQueueingTime:histogram:rangemin 0
scalar SingleCell_D2D.pgw.pppIf.queue flowQueueingTime:histogram:rangemax 1
scalar SingleCell_D2D.pgw.pppIf.queue flowQueueingTime:histogram:underflows 0
scalar SingleCell_D2D.pgw.pppIf.queue flowQueueingTime:histogram:overflows 0
scalar SingleCell_D2D.pgw.pppIf.queue incomingPacketLengths:histogram:count 0
scalar SingleCell_D2D.pgw.pppIf.queue incomingPacketLengths:histogram:sumweights 0
scalar SingleCell_D2D.pgw.pppIf.queue incomingPacketLengths:histogram:mean -nan
scalar SingleCell_D2D.pgw.pppIf.queue incomingPacketLengths:histogram:stddev nan
scalar SingleCell_D2D.pgw.pppIf.queue incomingPacketLengths:histogram:min nan
scalar SingleCell_D2D.pgw.pppIf.queue incomingPacketLengths:histogram:max nan
scalar SingleCell_D2D.pgw.pppIf.queue incomingPacketLengths:histogram:numbins 1
scalar SingleCell_D2D.pgw.pppIf.queue incomingPacketLengths:histogram:rangemin 0
scalar SingleCell_D2D.pgw.pppIf.queue incomingPacketLengths:histogram:rangemax 1
scalar SingleCell_D2D.pgw.pppIf.queue incomingPacketLengths:histogram:underflows 0
scalar SingleCell_D2D.pgw.pppIf.queue incomingPacketLengths:histogram:overflows 0
scalar SingleCell_D2D.eNB.pppIf.queue queueingTime:histogram:count 0
scalar SingleCell_D2D.eNB.pppIf.queue queueingTime:histogram:sumweights 0
scalar SingleCell_D2D.eNB.pppIf.queue queueingTime:histogram:mean -nan
scalar SingleCell_D2D.eNB.pppIf.queue queueingTime:histogram:stddev nan
scalar SingleCell_D2D.eNB.pppIf.queue queueingTime:histogram:min nan
scalar SingleCell_D2D.eNB.pppIf.queue queueingTime:histogram:max nan
scalar SingleCell_D2D.eNB.pppIf.queue queueingTime:histogram:numbins 1
scalar SingleCell_D2D.eNB.pppIf.queue queueingTime:histogram:rangemin 0
scalar SingleCell_D2D.eNB.pppIf.queue queueingTime:histogram:rangemax 1
scalar SingleCell_D2D.eNB.pppIf.queue queueingTime:histogram:underflows 0
scalar SingleCell_D2D.eNB.pppIf.queue queueingTime:histogram:overflows 0
scalar SingleCell_D2D.eNB.pppIf.queue outgoingPacketLengths:histogram:count 0
scalar SingleCell_D2D.eNB.pppIf.queue outgoingPacketLengths:histogram:sumweights 0
scalar SingleCell_D2D.eNB.pppIf.queue outgoingPacketLengths:histogram:mean -nan
scalar SingleCell_D2D.eNB.pppIf.queue outgoingPacketLengths:histogram:stddev nan
scalar SingleCell_D2D.eNB.pppIf.queue outgoingPacketLengths:histogram:min nan
scalar SingleCell_D2D.eNB.pppIf.queue outgoingPacketLengths:histogram:max nan
scalar SingleCell_D2D.eNB.pppIf.queue outgoingPacketLengths:histogram:numbins 1
scalar SingleCell_D2D.eNB.pppIf.queue outgoingPacketLengths:histogram:rangemin 0
scalar SingleCell_D2D.eNB.pppIf.queue outgoingPacketLengths:histogram:rangemax 1
scalar SingleCell_D2D.eNB.pppIf.queue outgoingPacketLengths:histogram:underflows 0
scalar SingleCell_D2D.eNB.pppIf.queue outgoingPacketLengths:histogram:overflows 0
scalar SingleCell_D2D.eNB.pppIf.queue flowQueueingTime:histogram:count 0
scalar SingleCell_D2D.eNB.pppIf.queue flowQueueingTime:histogram:sumweights 0
scalar SingleCell_D2D.eNB.pppIf.queue flowQueueingTime:histogram:mean -nan
scalar SingleCell_D2D.eNB.pppIf.queue flowQueueingTime:histogram:stddev nan
scalar SingleCell_D2D.eNB.pppIf.queue flowQueueingTime:histogram:min nan
scalar SingleCell_D2D.eNB.pppIf.queue flowQueueingTime:histogram:max nan
scalar SingleCell_D2D.eNB.pppIf.queue flowQueueingTime:histogram:numbins 1
[...]
scalar SingleCell_D2D.ueD2DRx[0].tcp.conn-17 sndWnd:vector:sumweights 2
scalar SingleCell_D2D.ueD2DRx[0].tcp.conn-17 sndWnd:vector:mean 7504
scalar SingleCell_D2D.ueD2DRx[0].tcp.conn-17 sndWnd:vector:stddev 0
scalar SingleCell_D2D.ueD2DRx[0].tcp.conn-17 sndWnd:vector:min 7504
scalar SingleCell_D2D.ueD2DRx[0].tcp.conn-17 sndWnd:vector:max 7504
scalar SingleCell_D2D.ueD2DRx[0].tcp.conn-17 sndWnd:vector:starttime 0.067000000000000004
scalar SingleCell_D2D.ueD2DRx[0].tcp.conn-17 sndWnd:vector:endtime 0.097000000000000003
scalar SingleCell_D2D.ueD2DRx[0].tcp.conn-17 rcvWnd:vector:count 1419
scalar SingleCell_D2D.ueD2DRx[0].tcp.conn-17 rcvWnd:vector:sum 10648176
scalar SingleCell_D2D.ueD2DRx[0].tcp.conn-17 rcvWnd:vector:sumweights 1419
scalar SingleCell_D2D.ueD2DRx[0].tcp.conn-17 rcvWnd:vector:mean 7504
scalar SingleCell_D2D.ueD2DRx[0].tcp.conn-17 rcvWnd:vector:stddev 0
scalar SingleCell_D2D.ueD2DRx[0].tcp.conn-17 rcvWnd:vector:min 7504
scalar SingleCell_D2D.ueD2DRx[0].tcp.conn-17 rcvWnd:vector:max 7504
scalar SingleCell_D2D.ueD2DRx[0].tcp.conn-17 rcvWnd:vector:starttime 0.067000000000000004
scalar SingleCell_D2D.ueD2DRx[0].tcp.conn-17 rcvWnd:vector:endtime 4.9950000000000001
scalar SingleCell_D2D.ueD2DRx[0].tcp.conn-17 rcvAdv:vector:count 1420
scalar SingleCell_D2D.ueD2DRx[0].tcp.conn-17 rcvAdv:vector:sum 568519088
scalar SingleCell_D2D.ueD2DRx[0].tcp.conn-17 rcvAdv:vector:sumweights 1420
scalar SingleCell_D2D.ueD2DRx[0].tcp.conn-17 rcvAdv:vector:mean 400365.55492957745
scalar SingleCell_D2D.ueD2DRx[0].tcp.conn-17 rcvAdv:vector:stddev 219644.9706740613
scalar SingleCell_D2D.ueD2DRx[0].tcp.conn-17 rcvAdv:vector:min 20716
scalar SingleCell_D2D.ueD2DRx[0].tcp.conn-17 rcvAdv:vector:max 780228
scalar SingleCell_D2D.ueD2DRx[0].tcp.conn-17 rcvAdv:vector:starttime 0.067000000000000004
scalar SingleCell_D2D.ueD2DRx[0].tcp.conn-17 rcvAdv:vector:endtime 4.9950000000000001
scalar SingleCell_D2D.ueD2DRx[0].tcp.conn-17 sndNxt:vector:count 0
scalar SingleCell_D2D.ueD2DRx[0].tcp.conn-17 sndNxt:vector:sum 0
scalar SingleCell_D2D.ueD2DRx[0].tcp.conn-17 sndNxt:vector:sumweights 0
scalar SingleCell_D2D.ueD2DRx[0].tcp.conn-17 sndNxt:vector:mean -nan
scalar SingleCell_D2D.ueD2DRx[0].tcp.conn-17 sndNxt:vector:stddev nan
scalar SingleCell_D2D.ueD2DRx[0].tcp.conn-17 sndNxt:vector:min inf
scalar SingleCell_D2D.ueD2DRx[0].tcp.conn-17 sndNxt:vector:max -inf
scalar SingleCell_D2D.ueD2DRx[0].tcp.conn-17 sndNxt:vector:starttime nan
scalar SingleCell_D2D.ueD2DRx[0].tcp.conn-17 sndNxt:vector:endtime nan
scalar SingleCell_D2D.ueD2DRx[0].tcp.conn-17 sndAck:vector:count 1419
scalar SingleCell_D2D.ueD2DRx[0].tcp.conn-17 sndAck:vector:sum 557850196
scalar SingleCell_D2D.ueD2DRx[0].tcp.conn-17 sndAck:vector:sumweights 1419
scalar SingleCell_D2D.ueD2DRx[0].tcp.conn-17 sndAck:vector:mean 393129.10218463704
scalar SingleCell_D2D.ueD2DRx[0].tcp.conn-17 sndAck:vector:stddev 219490.8157254348
scalar SingleCell_D2D.ueD2DRx[0].tcp.conn-17 sndAck:vector:min 13212
scalar SingleCell_D2D.ueD2DRx[0].tcp.conn-17 sndAck:vector:max 772724
scalar SingleCell_D2D.ueD2DRx[0].tcp.conn-17 sndAck:vector:starttime 0.067000000000000004
scalar SingleCell_D2D.ueD2DRx[0].tcp.conn-17 sndAck:vector:endtime 4.9950000000000001
scalar SingleCell_D2D.ueD2DRx[0].tcp.conn-17 rcvSeq:vector:count 1419
scalar SingleCell_D2D.ueD2DRx[0].tcp.conn-17 rcvSeq:vector:sum 557083180
scalar SingleCell_D2D.ueD2DRx[0].tcp.conn-17 rcvSeq:vector:sumweights 1419
scalar SingleCell_D2D.ueD2DRx[0].tcp.conn-17 rcvSeq:vector:mean 392588.56941508106
scalar SingleCell_D2D.ueD2DRx[0].tcp.conn-17 rcvSeq:vector:stddev 219485.12540745968
scalar SingleCell_D2D.ueD2DRx[0].tcp.conn-17 rcvSeq:vector:min 13212
scalar SingleCell_D2D.ueD2DRx[0].tcp.conn-17 rcvSeq:vector:max 772188
scalar SingleCell_D2D.ueD2DRx[0].tcp.conn-17 rcvSeq:vector:starttime 0.097000000000000003
scalar SingleCell_D2D.ueD2DRx[0].tcp.conn-17 rcvSeq:vector:endtime 4.9950000000000001
scalar SingleCell_D2D.ueD2DRx[0].tcp.conn-17 rcvAck:vector:count 1419
scalar SingleCell_D2D.ueD2DRx[0].tcp.conn-17 rcvAck:vector:sum 23769669
scalar SingleCell_D2D.ueD2DRx[0].tcp.conn-17 rcvAck:vector:sumweights 1419
scalar SingleCell_D2D.ueD2DRx[0].tcp.conn-17 rcvAck:vector:mean 16751
scalar SingleCell_D2D.ueD2DRx[0].tcp.conn-17 rcvAck:vector:stddev 0
scalar SingleCell_D2D.ueD2DRx[0].tcp.conn-17 rcvAck:vector:min 16751
scalar SingleCell_D2D.ueD2DRx[0].tcp.conn-17 rcvAck:vector:max 16751
scalar SingleCell_D2D.ueD2DRx[0].tcp.conn-17 rcvAck:vector:starttime 0.097000000000000003
scalar SingleCell_D2D.ueD2DRx[0].tcp.conn-17 rcvAck:vector:endtime 4.9950000000000001
scalar SingleCell_D2D.ueD2DRx[0].tcp.conn-17 unacked:vector:count 1
scalar SingleCell_D2D.ueD2DRx[0].tcp.conn-17 unacked:vector:sum 0
scalar SingleCell_D2D.ueD2DRx[0].tcp.conn-17 unacked:vector:sumweights 1
scalar SingleCell_D2D.ueD2DRx[0].tcp.conn-17 unacked:vector:mean 0
scalar SingleCell_D2D.ueD2DRx[0].tcp.conn-17 unacked:vector:stddev nan
scalar SingleCell_D2D.ueD2DRx[0].tcp.conn-17 unacked:vector:min 0
scalar SingleCell_D2D.ueD2DRx[0].tcp.conn-17 unacked:vector:max 0
scalar SingleCell_D2D.ueD2DRx[0].tcp.conn-17 unacked:vector:starttime 0.097000000000000003
scalar SingleCell_D2D.ueD2DRx[0].tcp.conn-17 unacked:vector:endtime 0.097000000000000003
scalar SingleCell_D2D.ueD2DRx[0].tcp.conn-17 dupAcks:vector:count 1417
scalar SingleCell_D2D.ueD2DRx[0].tcp.conn-17 dupAcks:vector:sum 0
scalar SingleCell_D2D.ueD2DRx[0].tcp.conn-17 dupAcks:vector:sumweights 1417
scalar SingleCell_D2D.ueD2DRx[0].tcp.conn-17 dupAcks:vector:mean 0
scalar SingleCell_D2D.ueD2DRx[0].tcp.conn-17 dupAcks:vector:stddev 0
scalar SingleCell_D2D.ueD2DRx[0].tcp.conn-17 dupAcks:vector:min 0
scalar SingleCell_D2D.ueD2DRx[0].tcp.conn-17 dupAcks:vector:max 0
scalar SingleCell_D2D.ueD2DRx[0].tcp.conn-17 dupAcks:vector:starttime 0.49099999999999999
scalar SingleCell_D2D.ueD2DRx[0].tcp.conn-17 dupAcks:vector:endtime 4.9950000000000001
scalar SingleCell_D2D.ueD2DRx[0].tcp.conn-17 pipe:vector:count 0
scalar SingleCell_D2D.ueD2DRx[0].tcp.conn-17 pipe:vector:sum 0
scalar SingleCell_D2D.ueD2DRx[0].tcp.conn-17 pipe:vector:sumweights 0
scalar SingleCell_D2D.ueD2DRx[0].tcp.conn-17 pipe:vector:mean -nan
scalar SingleCell_D2D.ueD2DRx[0].tcp.conn-17 pipe:vector:stddev nan
scalar SingleCell_D2D.ueD2DRx[0].tcp.conn-17 pipe:vector:min inf
scalar SingleCell_D2D.ueD2DRx[0].tcp.conn-17 pipe:vector:max -inf
scalar SingleCell_D2D.ueD2DRx[0].tcp.conn-17 pipe:vector:starttime nan
scalar SingleCell_D2D.ueD2DRx[0].tcp.conn-17 pipe:vector:endtime nan
scalar SingleCell_D2D.ueD2DRx[0].tcp.conn-17 sndSacks:vector:count 0
scalar SingleCell_D2D.ueD2DRx[0].tcp.conn-17 sndSacks:vector:sum 0
scalar SingleCell_D2D.ueD2DRx[0].tcp.conn-17 sndSacks:vector:sumweights 0
scalar SingleCell_D2D.ueD2DRx[0].tcp.conn-17 sndSacks:vector:mean -nan
scalar SingleCell_D2D.ueD2DRx[0].tcp.conn-17 sndSacks:vector:stddev nan
scalar SingleCell_D2D.ueD2DRx[0].tcp.conn-17 sndSacks:vector:min inf
scalar SingleCell_D2D.ueD2DRx[0].tcp.conn-17 sndSacks:vector:max -inf
scalar SingleCell_D2D.ueD2DRx[0].tcp.conn-17 sndSacks:vector:starttime nan
scalar SingleCell_D2D.ueD2DRx[0].tcp.conn-17 sndSacks:vector:endtime nan
scalar SingleCell_D2D.ueD2DRx[0].tcp.conn-17 rcvSacks:vector:count 0
scalar SingleCell_D2D.ueD2DRx[0].tcp.conn-17 rcvSacks:vector:sum 0
scalar SingleCell_D2D.ueD2DRx[0].tcp.conn-17 rcvSacks:vector:sumweights 0
scalar SingleCell_D2D.ueD2DRx[0].tcp.conn-17 rcvSacks:vector:mean -nan
scalar SingleCell_D2D.ueD2DRx[0].tcp.conn-17 rcvSacks:vector:stddev nan
scalar SingleCell_D2D.ueD2DRx[0].tcp.conn-17 rcvSacks:vector:min inf
scalar SingleCell_D2D.ueD2DRx[0].tcp.conn-17 rcvSacks:vector:max -inf
scalar SingleCell_D2D.ueD2DRx[0].tcp.conn-17 rcvSacks:vector:starttime nan
scalar SingleCell_D2D.ueD2DRx[0].tcp.conn-17 rcvSacks:vector:endtime nan
scalar SingleCell_D2D.ueD2DRx[0].tcp.conn-17 rcvOooSeg:vector:count 0
scalar SingleCell_D2D.ueD2DRx[0].tcp.conn-17 rcvOooSeg:vector:sum 0
scalar SingleCell_D2D.ueD2DRx[0].tcp.conn-17 rcvOooSeg:vector:sumweights 0
scalar SingleCell_D2D.ueD2DRx[0].tcp.conn-17 rcvOooSeg:vector:mean -nan
scalar SingleCell_D2D.ueD2DRx[0].tcp.conn-17 rcvOooSeg:vector:stddev nan
scalar SingleCell_D2D.ueD2DRx[0].tcp.conn-17 rcvOooSeg:vector:min inf
scalar SingleCell_D2D.ueD2DRx[0].tcp.conn-17 rcvOooSeg:vector:max -inf
scalar SingleCell_D2D.ueD2DRx[0].tcp.conn-17 rcvOooSeg:vector:starttime nan
scalar SingleCell_D2D.ueD2DRx[0].tcp.conn-17 rcvOooSeg:vector:endtime nan
scalar SingleCell_D2D.ueD2DRx[0].tcp.conn-17 rcvNASeg:vector:count 1
scalar SingleCell_D2D.ueD2DRx[0].tcp.conn-17 rcvNASeg:vector:sum 1
scalar SingleCell_D2D.ueD2DRx[0].tcp.conn-17 rcvNASeg:vector:sumweights 1
scalar SingleCell_D2D.ueD2DRx[0].tcp.conn-17 rcvNASeg:vector:mean 1
scalar SingleCell_D2D.ueD2DRx[0].tcp.conn-17 rcvNASeg:vector:stddev nan
scalar SingleCell_D2D.ueD2DRx[0].tcp.conn-17 rcvNASeg:vector:min 1
scalar SingleCell_D2D.ueD2DRx[0].tcp.conn-17 rcvNASeg:vector:max 1
scalar SingleCell_D2D.ueD2DRx[0].tcp.conn-17 rcvNASeg:vector:starttime 4.0490000000000004
scalar SingleCell_D2D.ueD2DRx[0].tcp.conn-17 rcvNASeg:vector:endtime 4.0490000000000004
scalar SingleCell_D2D.ueD2DRx[0].tcp.conn-17 sackedBytes:vector:count 0
scalar SingleCell_D2D.ueD2DRx[0].tcp.conn-17 sackedBytes:vector:sum 0
scalar SingleCell_D2D.ueD2DRx[0].tcp.conn-17 sackedBytes:vector:sumweights 0
scalar SingleCell_D2D.ueD2DRx[0].tcp.conn-17 sackedBytes:vector:mean -nan
scalar SingleCell_D2D.ueD2DRx[0].tcp.conn-17 sackedBytes:vector:stddev nan
scalar SingleCell_D2D.ueD2DRx[0].tcp.conn-17 sackedBytes:vector:min inf
scalar SingleCell_D2D.ueD2DRx[0].tcp.conn-17 sackedBytes:vector:max -inf
scalar SingleCell_D2D.ueD2DRx[0].tcp.conn-17 sackedBytes:vector:starttime nan
scalar SingleCell_D2D.ueD2DRx[0].tcp.conn-17 sackedBytes:vector:endtime nan
scalar SingleCell_D2D.ueD2DRx[0].tcp.conn-17 tcpRcvQueueBytes:vector:count 2836
scalar SingleCell_D2D.ueD2DRx[0].tcp.conn-17 tcpRcvQueueBytes:vector:sum 0
scalar SingleCell_D2D.ueD2DRx[0].tcp.conn-17 tcpRcvQueueBytes:vector:sumweights 2836
scalar SingleCell_D2D.ueD2DRx[0].tcp.conn-17 tcpRcvQueueBytes:vector:mean 0
scalar SingleCell_D2D.ueD2DRx[0].tcp.conn-17 tcpRcvQueueBytes:vector:stddev 0
scalar SingleCell_D2D.ueD2DRx[0].tcp.conn-17 tcpRcvQueueBytes:vector:min 0
scalar SingleCell_D2D.ueD2DRx[0].tcp.conn-17 tcpRcvQueueBytes:vector:max 0
scalar SingleCell_D2D.ueD2DRx[0].tcp.conn-17 tcpRcvQueueBytes:vector:starttime 0.067000000000000004
scalar SingleCell_D2D.ueD2DRx[0].tcp.conn-17 tcpRcvQueueBytes:vector:endtime 4.9950000000000001
scalar SingleCell_D2D.ueD2DRx[0].tcp.conn-17 tcpRcvQueueDrops:vector:count 0
scalar SingleCell_D2D.ueD2DRx[0].tcp.conn-17 tcpRcvQueueDrops:vector:sum 0
scalar SingleCell_D2D.ueD2DRx[0].tcp.conn-17 tcpRcvQueueDrops:vector:sumweights 0
scalar SingleCell_D2D.ueD2DRx[0].tcp.conn-17 tcpRcvQueueDrops:vector:mean -nan
scalar SingleCell_D2D.ueD2DRx[0].tcp.conn-17 tcpRcvQueueDrops:vector:stddev nan
scalar SingleCell_D2D.ueD2DRx[0].tcp.conn-17 tcpRcvQueueDrops:vector:min inf
scalar SingleCell_D2D.ueD2DRx[0].tcp.conn-17 tcpRcvQueueDrops:vector:max -inf
scalar SingleCell_D2D.ueD2DRx[0].tcp.conn-17 tcpRcvQueueDrops:vector:starttime nan
scalar SingleCell_D2D.ueD2DRx[0].tcp.conn-17 tcpRcvQueueDrops:vector:endtime nan
scalar SingleCell_D2D.ueD2DRx[0].tcp.conn-17 tcpRcvPayloadBytes:vector:count 1419
scalar SingleCell_D2D.ueD2DRx[0].tcp.conn-17 tcpRcvPayloadBytes:vector:sum 760048
scalar SingleCell_D2D.ueD2DRx[0].tcp.conn-17 tcpRcvPayloadBytes:vector:sumweights 1419
scalar SingleCell_D2D.ueD2DRx[0].tcp.conn-17 tcpRcvPayloadBytes:vector:mean 535.62226920366459
scalar SingleCell_D2D.ueD2DRx[0].tcp.conn-17 tcpRcvPayloadBytes:vector:stddev 14.228974201810514
scalar SingleCell_D2D.ueD2DRx[0].tcp.conn-17 tcpRcvPayloadBytes:vector:min 0
scalar SingleCell_D2D.ueD2DRx[0].tcp.conn-17 tcpRcvPayloadBytes:vector:max 536
scalar SingleCell_D2D.ueD2DRx[0].tcp.conn-17 tcpRcvPayloadBytes:vector:starttime 0.097000000000000003
scalar SingleCell_D2D.ueD2DRx[0].tcp.conn-17 tcpRcvPayloadBytes:vector:endtime 4.9950000000000001
scalar SingleCell_D2D.ueD2DRx[0].tcp.conn-17 cwnd:vector:count 0
scalar SingleCell_D2D.ueD2DRx[0].tcp.conn-17 cwnd:vector:sum 0
scalar SingleCell_D2D.ueD2DRx[0].tcp.conn-17 cwnd:vector:sumweights 0
scalar SingleCell_D2D.ueD2DRx[0].tcp.conn-17 cwnd:vector:mean -nan
scalar SingleCell_D2D.ueD2DRx[0].tcp.conn-17 cwnd:vector:stddev nan
scalar SingleCell_D2D.ueD2DRx[0].tcp.conn-17 cwnd:vector:min inf
scalar SingleCell_D2D.ueD2DRx[0].tcp.conn-17 cwnd:vector:max -inf
scalar SingleCell_D2D.ueD2DRx[0].tcp.conn-17 cwnd:vector:starttime nan
scalar SingleCell_D2D.ueD2DRx[0].tcp.conn-17 cwnd:vector:endtime nan
scalar SingleCell_D2D.ueD2DRx[0].tcp.conn-17 ssthresh:vector:count 0
scalar SingleCell_D2D.ueD2DRx[0].tcp.conn-17 ssthresh:vector:sum 0
scalar SingleCell_D2D.ueD2DRx[0].tcp.conn-17 ssthresh:vector:sumweights 0
scalar SingleCell_D2D.ueD2DRx[0].tcp.conn-17 ssthresh:vector:mean -nan
scalar SingleCell_D2D.ueD2DRx[0].tcp.conn-17 ssthresh:vector:stddev nan
scalar SingleCell_D2D.ueD2DRx[0].tcp.conn-17 ssthresh:vector:min inf
scalar SingleCell_D2D.ueD2DRx[0].tcp.conn-17 ssthresh:vector:max -inf
scalar SingleCell_D2D.ueD2DRx[0].tcp.conn-17 ssthresh:vector:starttime nan
scalar SingleCell_D2D.ueD2DRx[0].tcp.conn-17 ssthresh:vector:endtime nan
scalar SingleCell_D2D.ueD2DRx[0].tcp.conn-17 rtt:vector:count 0
scalar SingleCell_D2D.ueD2DRx[0].tcp.conn-17 rtt:vector:sum 0
scalar SingleCell_D2D.ueD2DRx[0].tcp.conn-17 rtt:vector:sumweights 0
scalar SingleCell_D2D.ueD2DRx[0].tcp.conn-17 rtt:vector:mean -nan
scalar SingleCell_D2D.ueD2DRx[0].tcp.conn-17 rtt:vector:stddev nan
scalar SingleCell_D2D.ueD2DRx[0].tcp.conn-17 rtt:vector:min inf
scalar SingleCell_D2D.ueD2DRx[0].tcp.conn-17 rtt:vector:max -inf
scalar SingleCell_D2D.ueD2DRx[0].tcp.conn-17 rtt:vector:starttime nan
scalar SingleCell_D2D.ueD2DRx[0].tcp.conn-17 rtt:vector:endtime nan
scalar SingleCell_D2D.ueD2DRx[0].tcp.conn-17 srtt:vector:count 0
scalar SingleCell_D2D.ueD2DRx[0].tcp.conn-17 srtt:vector:sum 0
scalar SingleCell_D2D.ueD2DRx[0].tcp.conn-17 srtt:vector:sumweights 0
scalar SingleCell_D2D.ueD2DRx[0].tcp.conn-17 srtt:vector:mean -nan
scalar SingleCell_D2D.ueD2DRx[0].tcp.conn-17 srtt:vector:stddev nan
scalar SingleCell_D2D.ueD2DRx[0].tcp.conn-17 srtt:vector:min inf
scalar SingleCell_D2D.ueD2DRx[0].tcp.conn-17 srtt:vector:max -inf
scalar SingleCell_D2D.ueD2DRx[0].tcp.conn-17 srtt:vector:starttime nan
scalar SingleCell_D2D.ueD2DRx[0].tcp.conn-17 srtt:vector:endtime nan
scalar SingleCell_D2D.ueD2DRx[0].tcp.conn-17 rttvar:vector:count 0
scalar SingleCell_D2D.ueD2DRx[0].tcp.conn-17 rttvar:vector:sum 0
scalar SingleCell_D2D.ueD2DRx[0].tcp.conn-17 rttvar:vector:sumweights 0
scalar SingleCell_D2D.ueD2DRx[0].tcp.conn-17 rttvar:vector:mean -nan
scalar SingleCell_D2D.ueD2DRx[0].tcp.conn-17 rttvar:vector:stddev nan
scalar SingleCell_D2D.ueD2DRx[0].tcp.conn-17 rttvar:vector:min inf
scalar SingleCell_D2D.ueD2DRx[0].tcp.conn-17 rttvar:vector:max -inf
scalar SingleCell_D2D.ueD2DRx[0].tcp.conn-17 rttvar:vector:starttime nan
scalar SingleCell_D2D.ueD2DRx[0].tcp.conn-17 rttvar:vector:endtime nan
scalar SingleCell_D2D.ueD2DRx[0].tcp.conn-17 rto:vector:count 0
scalar SingleCell_D2D.ueD2DRx[0].tcp.conn-17 rto:vector:sum 0
scalar SingleCell_D2D.ueD2DRx[0].tcp.conn-17 rto:vector:sumweights 0
scalar SingleCell_D2D.ueD2DRx[0].tcp.conn-17 rto:vector:mean -nan
scalar SingleCell_D2D.ueD2DRx[0].tcp.conn-17 rto:vector:stddev nan
scalar SingleCell_D2D.ueD2DRx[0].tcp.conn-17 rto:vector:min inf
scalar SingleCell_D2D.ueD2DRx[0].tcp.conn-17 rto:vector:max -inf
scalar SingleCell_D2D.ueD2DRx[0].tcp.conn-17 rto:vector:starttime nan
scalar SingleCell_D2D.ueD2DRx[0].tcp.conn-17 rto:vector:endtime nan
scalar SingleCell_D2D.ueD2DRx[0].tcp.conn-17 numRtos:vector:count 0
scalar SingleCell_D2D.ueD2DRx[0].tcp.conn-17 numRtos:vector:sum 0
scalar SingleCell_D2D.ueD2DRx[0].tcp.conn-17 numRtos:vector:sumweights 0
scalar SingleCell_D2D.ueD2DRx[0].tcp.conn-17 numRtos:vector:mean -nan
scalar SingleCell_D2D.ueD2DRx[0].tcp.conn-17 numRtos:vector:stddev nan
scalar SingleCell_D2D.ueD2DRx[0].tcp.conn-17 numRtos:vector:min inf
scalar SingleCell_D2D.ueD2DRx[0].tcp.conn-17 numRtos:vector:max -inf
scalar SingleCell_D2D.ueD2DRx[0].tcp.conn-17 numRtos:vector:starttime nan
scalar SingleCell_D2D.ueD2DRx[0].tcp.conn-17 numRtos:vector:endtime nan
scalar SingleCell_D2D.ueD2DRx[0].tcp.conn-17 load:vector:count 0
scalar SingleCell_D2D.ueD2DRx[0].tcp.conn-17 load:vector:sum 0
scalar SingleCell_D2D.ueD2DRx[0].tcp.conn-17 load:vector:sumweights 0
scalar SingleCell_D2D.ueD2DRx[0].tcp.conn-17 load:vector:mean -nan
scalar SingleCell_D2D.ueD2DRx[0].tcp.conn-17 load:vector:stddev nan
scalar SingleCell_D2D.ueD2DRx[0].tcp.conn-17 load:vector:min inf
scalar SingleCell_D2D.ueD2DRx[0].tcp.conn-17 load:vector:max -inf
scalar SingleCell_D2D.ueD2DRx[0].tcp.conn-17 load:vector:starttime nan
scalar SingleCell_D2D.ueD2DRx[0].tcp.conn-17 load:vector:endtime nan
scalar SingleCell_D2D.ueD2DRx[0].tcp.conn-17 calcLoad:vector:count 0
scalar SingleCell_D2D.ueD2DRx[0].tcp.conn-17 calcLoad:vector:sum 0
scalar SingleCell_D2D.ueD2DRx[0].tcp.conn-17 calcLoad:vector:sumweights 0
scalar SingleCell_D2D.ueD2DRx[0].tcp.conn-17 calcLoad:vector:mean -nan
scalar SingleCell_D2D.ueD2DRx[0].tcp.conn-17 calcLoad:vector:stddev nan
scalar SingleCell_D2D.ueD2DRx[0].tcp.conn-17 calcLoad:vector:min inf
scalar SingleCell_D2D.ueD2DRx[0].tcp.conn-17 calcLoad:vector:max -inf
scalar SingleCell_D2D.ueD2DRx[0].tcp.conn-17 calcLoad:vector:starttime nan
scalar SingleCell_D2D.ueD2DRx[0].tcp.conn-17 calcLoad:vector:endtime nan
scalar SingleCell_D2D.ueD2DRx[0].tcp.conn-17 markingProb:vector:count 0
scalar SingleCell_D2D.ueD2DRx[0].tcp.conn-17 markingProb:vector:sum 0
scalar SingleCell_D2D.ueD2DRx[0].tcp.conn-17 markingProb:vector:sumweights 0
scalar SingleCell_D2D.ueD2DRx[0].tcp.conn-17 markingProb:vector:mean -nan
scalar SingleCell_D2D.ueD2DRx[0].tcp.conn-17 markingProb:vector:stddev nan
scalar SingleCell_D2D.ueD2DRx[0].tcp.conn-17 markingProb:vector:min inf
scalar SingleCell_D2D.ueD2DRx[0].tcp.conn-17 markingProb:vector:max -inf
scalar SingleCell_D2D.ueD2DRx[0].tcp.conn-17 markingProb:vector:starttime nan
scalar SingleCell_D2D.ueD2DRx[0].tcp.conn-17 markingProb:vector:endtime nan
scalar SingleCell_D2D.ueD2DRx[0].app[0].thread_17 packetReceived:vector(packetBytes):count 1417
scalar SingleCell_D2D.ueD2DRx[0].app[0].thread_17 packetReceived:vector(packetBytes):sum 759512
scalar SingleCell_D2D.ueD2DRx[0].app[0].thread_17 packetReceived:vector(packetBytes):sumweights 1417
scalar SingleCell_D2D.ueD2DRx[0].app[0].thread_17 packetReceived:vector(packetBytes):mean 536
scalar SingleCell_D2D.ueD2DRx[0].app[0].thread_17 packetReceived:vector(packetBytes):stddev 0
scalar SingleCell_D2D.ueD2DRx[0].app[0].thread_17 packetReceived:vector(packetBytes):min 536
scalar SingleCell_D2D.ueD2DRx[0].app[0].thread_17 packetReceived:vector(packetBytes):max 536
scalar SingleCell_D2D.ueD2DRx[0].app[0].thread_17 packetReceived:vector(packetBytes):starttime 0.49099999999999999
scalar SingleCell_D2D.ueD2DRx[0].app[0].thread_17 packetReceived:vector(packetBytes):endtime 4.9950000000000001
scalar SingleCell_D2D.ueD2DRx[0].app[0].thread_17 endToEndDelay:vector:count 1417
scalar SingleCell_D2D.ueD2DRx[0].app[0].thread_17 endToEndDelay:vector:sum 2678.0070566987702
scalar SingleCell_D2D.ueD2DRx[0].app[0].thread_17 endToEndDelay:vector:sumweights 1417
scalar SingleCell_D2D.ueD2DRx[0].app[0].thread_17 endToEndDelay:vector:mean 1.8899132369080947
scalar SingleCell_D2D.ueD2DRx[0].app[0].thread_17 endToEndDelay:vector:stddev 1.2885900564874078
scalar SingleCell_D2D.ueD2DRx[0].app[0].thread_17 endToEndDelay:vector:min 0.014156003315999999
scalar SingleCell_D2D.ueD2DRx[0].app[0].thread_17 endToEndDelay:vector:max 4.5181560033160002
scalar SingleCell_D2D.ueD2DRx[0].app[0].thread_17 endToEndDelay:vector:starttime 0.49099999999999999
scalar SingleCell_D2D.ueD2DRx[0].app[0].thread_17 endToEndDelay:vector:endtime 4.9950000000000001

