version 3
run MultiplePairs-UDP-D2D-wReuse-0-20260709-21:29:20-650456
attr configname MultiplePairs-UDP-D2D-wReuse
attr datetime 20260709-21:29:20
attr datetimef 20260709-212920
attr experiment MultiplePairs-UDP-D2D-wReuse
attr inifile omnetpp.ini
attr iterationvars $numPairs=5
attr iterationvarsd numPairs=5
attr iterationvarsf numPairs=5-
attr measurement $numPairs=5
attr network simu5g.simulations.lte.networks.SingleCell_D2D
attr processid 650456
attr repetition 0
attr replication #0
attr resultdir results
attr runnumber 0
attr seedset 0
itervar numPairs 5
config **.param-recording false
config image-path /home/andras/projects/Simu5G-fork/simu5g-fork/images
config output-scalar-file results/omnetpp.ini-MultiplePairs-UDP-D2D-wReuse-#0.sca
config output-scalar-precision 17
config output-vector-file results/omnetpp.ini-MultiplePairs-UDP-D2D-wReuse-#0.vec
config output-vector-precision 17
config record-eventlog false
config sim-time-limit 5s
config extends MultiplePairs-UDP-D2D
config *.eNB.cellularNic.mac.schedulingDisciplineUl "\"ALLOCATOR_BESTFIT\""
config *.eNB.cellularNic.mac.reuseD2D true
config *.eNB.cellularNic.mac.conflictGraphUpdatePeriod 1s
config *.eNB.cellularNic.mac.conflictGraphThreshold 90
config extends MultiplePairs-UDP-Infra
config *.eNB*.cellularNic.typename LteNicEnbD2D
config *.ueD2D*[*].cellularNic.typename LteNicUeD2D
config **.amcMode "\"D2D\""
config *.ueD2D*[*].cellularNic.d2dInitialMode true
config *.eNB.cellularNic.phy.enableD2DCqiReporting true
config **.usePreconfiguredTxParams false
config **.d2dCqi 7
config extends MultiplePairs
config *.ueD2D*[*].numApps 1
config *.ueD2DTx[*].app[*].typename VoipSender
config *.ueD2DTx[*].app[*].localPort 3088+ancestorIndex(0)
config *.ueD2DTx[*].app[*].startTime uniform(0s,0.02s)
config *.ueD2DTx[*].app[*].destAddress "\"ueD2DRx[\" + string(ancestorIndex(1)) + \"]\""
config *.ueD2DTx[*].app[*].destPort 1000
config *.ueD2DRx[*].app[*].typename VoipReceiver
config *.ueD2DRx[*].app[*].localPort 1000
config *.eNB*.cellularNic.typename LteNicEnb
config *.ueD2D*[*].cellularNic.typename LteNicUe
config **.amcMode "\"AUTO\""
config network simu5g.simulations.lte.networks.SingleCell_D2D
config *.eNB.mobility.initFromDisplayString false
config *.eNB.mobility.initialX 300m
config *.eNB.mobility.initialY 300m
config *.numUeCell 0
config *.numUeD2DTx 5
config *.numUeD2DRx 5
config *.ue*[*].macCellId 1
config *.ue*[*].masterId 1
config *.ue*[*].mobility.initFromDisplayString false
config *.ueD2D*[*].mobility.initialX uniform(290m,310m)
config *.ueD2D*[*].mobility.initialY uniform(340m,350m)
config sim-time-limit 5s
config warmup-period 0s
config repeat 3
config **.routingRecorder.enabled false
config output-scalar-file results/MultiplePairs-UDP-D2D-wReuse/0.sca
config output-vector-file results/MultiplePairs-UDP-D2D-wReuse/0.vec
config seed-set 0
config **.vector-recording true
config **.mobility.constraintAreaMinZ 0m
config **.mobility.constraintAreaMaxZ 0m
config **.numBands 50
config *.configurator.config "xmldoc(\"./demo.xml\")"

scalar SingleCell_D2D.server.lo[0].lo rcvdPkFromHl:count 0
scalar SingleCell_D2D.server.lo[0].lo rcvdPkFromHl:sum(packetBytes) 0
scalar SingleCell_D2D.server.lo[0].lo passedUpPk:count 0
scalar SingleCell_D2D.server.lo[0].lo passedUpPk:sum(packetBytes) 0
scalar SingleCell_D2D.server.lo[0] packetDropInterfaceDown:count 0
scalar SingleCell_D2D.server.lo[0] packetDropInterfaceDown:sum(packetBytes) 0
scalar SingleCell_D2D.server.lo[0] packetDropNoCarrier:count 0
scalar SingleCell_D2D.server.lo[0] packetDropNoCarrier:sum(packetBytes) 0
scalar SingleCell_D2D.server.ppp[0].queue queueLength:last 0
scalar SingleCell_D2D.server.ppp[0].queue queueLength:max 0
scalar SingleCell_D2D.server.ppp[0].queue queueLength:timeavg 0
scalar SingleCell_D2D.server.ppp[0].queue queueBitLength:last 0
scalar SingleCell_D2D.server.ppp[0].queue queueBitLength:max 0
scalar SingleCell_D2D.server.ppp[0].queue queueBitLength:timeavg 0
scalar SingleCell_D2D.server.ppp[0].queue outgoingPackets:count 0
scalar SingleCell_D2D.server.ppp[0].queue outgoingPacketLengths:sum 0
scalar SingleCell_D2D.server.ppp[0].queue incomingPackets:count 0
scalar SingleCell_D2D.server.ppp[0].queue incomingPacketLengths:sum 0
scalar SingleCell_D2D.server.ppp[0].queue droppedPacketsQueueOverflow:count 0
scalar SingleCell_D2D.server.ppp[0].queue droppedPacketLengthsQueueOverflow:sum 0
scalar SingleCell_D2D.server.ppp[0].ppp transmissionState:timeavg 0
scalar SingleCell_D2D.server.ppp[0].ppp rxPkOk:count 0
scalar SingleCell_D2D.server.ppp[0].ppp rxPkOk:sum(packetBytes) 0
scalar SingleCell_D2D.server.ppp[0].ppp txPk:count 0
scalar SingleCell_D2D.server.ppp[0].ppp txPk:sum(packetBytes) 0
scalar SingleCell_D2D.server.ppp[0].ppp rcvdPkFromHl:count 0
scalar SingleCell_D2D.server.ppp[0].ppp rcvdPkFromHl:sum(packetBytes) 0
scalar SingleCell_D2D.server.ppp[0].ppp passedUpPk:count 0
scalar SingleCell_D2D.server.ppp[0].ppp passedUpPk:sum(packetBytes) 0
scalar SingleCell_D2D.server.ppp[0].ppp packetDropIncorrectlyReceived:count 0
scalar SingleCell_D2D.server.ppp[0].ppp packetDropIncorrectlyReceived:sum(packetBytes) 0
scalar SingleCell_D2D.server.ppp[0].ppp packetDropInterfaceDown:count 0
scalar SingleCell_D2D.server.ppp[0].ppp packetDropInterfaceDown:sum(packetBytes) 0
scalar SingleCell_D2D.server.ppp[0] packetDropInterfaceDown:count 0
scalar SingleCell_D2D.server.ppp[0] packetDropInterfaceDown:sum(packetBytes) 0
scalar SingleCell_D2D.server.ppp[0] packetDropNoCarrier:count 0
scalar SingleCell_D2D.server.ppp[0] packetDropNoCarrier:sum(packetBytes) 0
scalar SingleCell_D2D.server.ipv4.ip packetDropAddressResolutionFailed:count 0
scalar SingleCell_D2D.server.ipv4.ip packetDropAddressResolutionFailed:sum(packetBytes) 0
scalar SingleCell_D2D.server.ipv4.ip packetDropHopLimitReached:count 0
scalar SingleCell_D2D.server.ipv4.ip packetDropHopLimitReached:sum(packetBytes) 0
scalar SingleCell_D2D.server.ipv4.ip packetDropForwardingDisabled:count 0
scalar SingleCell_D2D.server.ipv4.ip packetDropForwardingDisabled:sum(packetBytes) 0
scalar SingleCell_D2D.server.ipv4.ip packetDropNoInterfaceFound:count 0
scalar SingleCell_D2D.server.ipv4.ip packetDropNoInterfaceFound:sum(packetBytes) 0
scalar SingleCell_D2D.server.ipv4.ip packetDropNoRouteFound:count 0
scalar SingleCell_D2D.server.ipv4.ip packetDropNoRouteFound:sum(packetBytes) 0
scalar SingleCell_D2D.server.ipv4.ip packetDropUndefined:count 0
scalar SingleCell_D2D.server.ipv4.ip packetDropUndefined:sum(packetBytes) 0
scalar SingleCell_D2D.server.ipv4.arp arpResolutionFailed:count 0
scalar SingleCell_D2D.server.ipv4.arp arpResolutionCompleted:count 0
scalar SingleCell_D2D.server.ipv4.arp arpResolutionInitiated:count 0
scalar SingleCell_D2D.server.ipv4.arp arpReplySent:count 0
scalar SingleCell_D2D.server.ipv4.arp arpReplySent:sum(packetBytes) 0
scalar SingleCell_D2D.server.ipv4.arp arpRequestSent:count 0
scalar SingleCell_D2D.server.ipv4.arp arpRequestSent:sum(packetBytes) 0
scalar SingleCell_D2D.server.udp packetReceived:count 0
scalar SingleCell_D2D.server.udp packetReceived:sum(packetBytes) 0
scalar SingleCell_D2D.server.udp packetSent:count 0
scalar SingleCell_D2D.server.udp packetSent:sum(packetBytes) 0
scalar SingleCell_D2D.server.udp passedUpPk:count 0
scalar SingleCell_D2D.server.udp droppedPkWrongPort:count 0
scalar SingleCell_D2D.server.udp droppedPkBadChecksum:count 0
scalar SingleCell_D2D.router.lo[0].lo rcvdPkFromHl:count 0
scalar SingleCell_D2D.router.lo[0].lo rcvdPkFromHl:sum(packetBytes) 0
scalar SingleCell_D2D.router.lo[0].lo passedUpPk:count 0
scalar SingleCell_D2D.router.lo[0].lo passedUpPk:sum(packetBytes) 0
scalar SingleCell_D2D.router.lo[0] packetDropInterfaceDown:count 0
scalar SingleCell_D2D.router.lo[0] packetDropInterfaceDown:sum(packetBytes) 0
scalar SingleCell_D2D.router.lo[0] packetDropNoCarrier:count 0
scalar SingleCell_D2D.router.lo[0] packetDropNoCarrier:sum(packetBytes) 0
scalar SingleCell_D2D.router.ppp[0].queue queueLength:last 0
scalar SingleCell_D2D.router.ppp[0].queue queueLength:max 0
scalar SingleCell_D2D.router.ppp[0].queue queueLength:timeavg 0
scalar SingleCell_D2D.router.ppp[0].queue queueBitLength:last 0
scalar SingleCell_D2D.router.ppp[0].queue queueBitLength:max 0
scalar SingleCell_D2D.router.ppp[0].queue queueBitLength:timeavg 0
scalar SingleCell_D2D.router.ppp[0].queue outgoingPackets:count 0
scalar SingleCell_D2D.router.ppp[0].queue outgoingPacketLengths:sum 0
scalar SingleCell_D2D.router.ppp[0].queue incomingPackets:count 0
scalar SingleCell_D2D.router.ppp[0].queue incomingPacketLengths:sum 0
scalar SingleCell_D2D.router.ppp[0].queue droppedPacketsQueueOverflow:count 0
scalar SingleCell_D2D.router.ppp[0].queue droppedPacketLengthsQueueOverflow:sum 0
scalar SingleCell_D2D.router.ppp[0].ppp transmissionState:timeavg 0
scalar SingleCell_D2D.router.ppp[0].ppp rxPkOk:count 0
scalar SingleCell_D2D.router.ppp[0].ppp rxPkOk:sum(packetBytes) 0
scalar SingleCell_D2D.router.ppp[0].ppp txPk:count 0
scalar SingleCell_D2D.router.ppp[0].ppp txPk:sum(packetBytes) 0
scalar SingleCell_D2D.router.ppp[0].ppp rcvdPkFromHl:count 0
scalar SingleCell_D2D.router.ppp[0].ppp rcvdPkFromHl:sum(packetBytes) 0
scalar SingleCell_D2D.router.ppp[0].ppp passedUpPk:count 0
scalar SingleCell_D2D.router.ppp[0].ppp passedUpPk:sum(packetBytes) 0
scalar SingleCell_D2D.router.ppp[0].ppp packetDropIncorrectlyReceived:count 0
scalar SingleCell_D2D.router.ppp[0].ppp packetDropIncorrectlyReceived:sum(packetBytes) 0
scalar SingleCell_D2D.router.ppp[0].ppp packetDropInterfaceDown:count 0
scalar SingleCell_D2D.router.ppp[0].ppp packetDropInterfaceDown:sum(packetBytes) 0
scalar SingleCell_D2D.router.ppp[0] packetDropInterfaceDown:count 0
scalar SingleCell_D2D.router.ppp[0] packetDropInterfaceDown:sum(packetBytes) 0
scalar SingleCell_D2D.router.ppp[0] packetDropNoCarrier:count 0
scalar SingleCell_D2D.router.ppp[0] packetDropNoCarrier:sum(packetBytes) 0
scalar SingleCell_D2D.router.ppp[1].queue queueLength:last 0
scalar SingleCell_D2D.router.ppp[1].queue queueLength:max 0
scalar SingleCell_D2D.router.ppp[1].queue queueLength:timeavg 0
scalar SingleCell_D2D.router.ppp[1].queue queueBitLength:last 0
scalar SingleCell_D2D.router.ppp[1].queue queueBitLength:max 0
scalar SingleCell_D2D.router.ppp[1].queue queueBitLength:timeavg 0
scalar SingleCell_D2D.router.ppp[1].queue outgoingPackets:count 0
scalar SingleCell_D2D.router.ppp[1].queue outgoingPacketLengths:sum 0
scalar SingleCell_D2D.router.ppp[1].queue incomingPackets:count 0
scalar SingleCell_D2D.router.ppp[1].queue incomingPacketLengths:sum 0
scalar SingleCell_D2D.router.ppp[1].queue droppedPacketsQueueOverflow:count 0
scalar SingleCell_D2D.router.ppp[1].queue droppedPacketLengthsQueueOverflow:sum 0
scalar SingleCell_D2D.router.ppp[1].ppp transmissionState:timeavg 0
scalar SingleCell_D2D.router.ppp[1].ppp rxPkOk:count 0
scalar SingleCell_D2D.router.ppp[1].ppp rxPkOk:sum(packetBytes) 0
scalar SingleCell_D2D.router.ppp[1].ppp txPk:count 0
scalar SingleCell_D2D.router.ppp[1].ppp txPk:sum(packetBytes) 0
scalar SingleCell_D2D.router.ppp[1].ppp rcvdPkFromHl:count 0
scalar SingleCell_D2D.router.ppp[1].ppp rcvdPkFromHl:sum(packetBytes) 0
scalar SingleCell_D2D.router.ppp[1].ppp passedUpPk:count 0
scalar SingleCell_D2D.router.ppp[1].ppp passedUpPk:sum(packetBytes) 0
scalar SingleCell_D2D.router.ppp[1].ppp packetDropIncorrectlyReceived:count 0
scalar SingleCell_D2D.router.ppp[1].ppp packetDropIncorrectlyReceived:sum(packetBytes) 0
scalar SingleCell_D2D.router.ppp[1].ppp packetDropInterfaceDown:count 0
scalar SingleCell_D2D.router.ppp[1].ppp packetDropInterfaceDown:sum(packetBytes) 0
scalar SingleCell_D2D.router.ppp[1] packetDropInterfaceDown:count 0
scalar SingleCell_D2D.router.ppp[1] packetDropInterfaceDown:sum(packetBytes) 0
scalar SingleCell_D2D.router.ppp[1] packetDropNoCarrier:count 0
scalar SingleCell_D2D.router.ppp[1] packetDropNoCarrier:sum(packetBytes) 0
scalar SingleCell_D2D.router.ipv4.ip packetDropAddressResolutionFailed:count 0
scalar SingleCell_D2D.router.ipv4.ip packetDropAddressResolutionFailed:sum(packetBytes) 0
scalar SingleCell_D2D.router.ipv4.ip packetDropHopLimitReached:count 0
scalar SingleCell_D2D.router.ipv4.ip packetDropHopLimitReached:sum(packetBytes) 0
scalar SingleCell_D2D.router.ipv4.ip packetDropForwardingDisabled:count 0
scalar SingleCell_D2D.router.ipv4.ip packetDropForwardingDisabled:sum(packetBytes) 0
scalar SingleCell_D2D.router.ipv4.ip packetDropNoInterfaceFound:count 0
scalar SingleCell_D2D.router.ipv4.ip packetDropNoInterfaceFound:sum(packetBytes) 0
scalar SingleCell_D2D.router.ipv4.ip packetDropNoRouteFound:count 0
scalar SingleCell_D2D.router.ipv4.ip packetDropNoRouteFound:sum(packetBytes) 0
scalar SingleCell_D2D.router.ipv4.ip packetDropUndefined:count 0
scalar SingleCell_D2D.router.ipv4.ip packetDropUndefined:sum(packetBytes) 0
scalar SingleCell_D2D.router.ipv4.arp arpResolutionFailed:count 0
scalar SingleCell_D2D.router.ipv4.arp arpResolutionCompleted:count 0
scalar SingleCell_D2D.router.ipv4.arp arpResolutionInitiated:count 0
scalar SingleCell_D2D.router.ipv4.arp arpReplySent:count 0
scalar SingleCell_D2D.router.ipv4.arp arpReplySent:sum(packetBytes) 0
scalar SingleCell_D2D.router.ipv4.arp arpRequestSent:count 0
scalar SingleCell_D2D.router.ipv4.arp arpRequestSent:sum(packetBytes) 0
scalar SingleCell_D2D.pgw.lo[0].lo rcvdPkFromHl:count 0
scalar SingleCell_D2D.pgw.lo[0].lo rcvdPkFromHl:sum(packetBytes) 0
scalar SingleCell_D2D.pgw.lo[0].lo passedUpPk:count 0
scalar SingleCell_D2D.pgw.lo[0].lo passedUpPk:sum(packetBytes) 0
scalar SingleCell_D2D.pgw.lo[0] packetDropInterfaceDown:count 0
scalar SingleCell_D2D.pgw.lo[0] packetDropInterfaceDown:sum(packetBytes) 0
scalar SingleCell_D2D.pgw.lo[0] packetDropNoCarrier:count 0
scalar SingleCell_D2D.pgw.lo[0] packetDropNoCarrier:sum(packetBytes) 0
scalar SingleCell_D2D.pgw.ppp[0].queue queueLength:last 0
scalar SingleCell_D2D.pgw.ppp[0].queue queueLength:max 0
scalar SingleCell_D2D.pgw.ppp[0].queue queueLength:timeavg 0
scalar SingleCell_D2D.pgw.ppp[0].queue queueBitLength:last 0
scalar SingleCell_D2D.pgw.ppp[0].queue queueBitLength:max 0
scalar SingleCell_D2D.pgw.ppp[0].queue queueBitLength:timeavg 0
scalar SingleCell_D2D.pgw.ppp[0].queue outgoingPackets:count 0
scalar SingleCell_D2D.pgw.ppp[0].queue outgoingPacketLengths:sum 0
scalar SingleCell_D2D.pgw.ppp[0].queue incomingPackets:count 0
scalar SingleCell_D2D.pgw.ppp[0].queue incomingPacketLengths:sum 0
scalar SingleCell_D2D.pgw.ppp[0].queue droppedPacketsQueueOverflow:count 0
scalar SingleCell_D2D.pgw.ppp[0].queue droppedPacketLengthsQueueOverflow:sum 0
scalar SingleCell_D2D.pgw.ppp[0].ppp transmissionState:timeavg 0
scalar SingleCell_D2D.pgw.ppp[0].ppp rxPkOk:count 0
scalar SingleCell_D2D.pgw.ppp[0].ppp rxPkOk:sum(packetBytes) 0
scalar SingleCell_D2D.pgw.ppp[0].ppp txPk:count 0
scalar SingleCell_D2D.pgw.ppp[0].ppp txPk:sum(packetBytes) 0
scalar SingleCell_D2D.pgw.ppp[0].ppp rcvdPkFromHl:count 0
scalar SingleCell_D2D.pgw.ppp[0].ppp rcvdPkFromHl:sum(packetBytes) 0
scalar SingleCell_D2D.pgw.ppp[0].ppp passedUpPk:count 0
scalar SingleCell_D2D.pgw.ppp[0].ppp passedUpPk:sum(packetBytes) 0
scalar SingleCell_D2D.pgw.ppp[0].ppp packetDropIncorrectlyReceived:count 0
scalar SingleCell_D2D.pgw.ppp[0].ppp packetDropIncorrectlyReceived:sum(packetBytes) 0
scalar SingleCell_D2D.pgw.ppp[0].ppp packetDropInterfaceDown:count 0
scalar SingleCell_D2D.pgw.ppp[0].ppp packetDropInterfaceDown:sum(packetBytes) 0
scalar SingleCell_D2D.pgw.ppp[0] packetDropInterfaceDown:count 0
scalar SingleCell_D2D.pgw.ppp[0] packetDropInterfaceDown:sum(packetBytes) 0
scalar SingleCell_D2D.pgw.ppp[0] packetDropNoCarrier:count 0
scalar SingleCell_D2D.pgw.ppp[0] packetDropNoCarrier:sum(packetBytes) 0
scalar SingleCell_D2D.pgw.ipv4.ip packetDropAddressResolutionFailed:count 0
scalar SingleCell_D2D.pgw.ipv4.ip packetDropAddressResolutionFailed:sum(packetBytes) 0
scalar SingleCell_D2D.pgw.ipv4.ip packetDropHopLimitReached:count 0
scalar SingleCell_D2D.pgw.ipv4.ip packetDropHopLimitReached:sum(packetBytes) 0
scalar SingleCell_D2D.pgw.ipv4.ip packetDropForwardingDisabled:count 0
scalar SingleCell_D2D.pgw.ipv4.ip packetDropForwardingDisabled:sum(packetBytes) 0
scalar SingleCell_D2D.pgw.ipv4.ip packetDropNoInterfaceFound:count 0
scalar SingleCell_D2D.pgw.ipv4.ip packetDropNoInterfaceFound:sum(packetBytes) 0
scalar SingleCell_D2D.pgw.ipv4.ip packetDropNoRouteFound:count 0
scalar SingleCell_D2D.pgw.ipv4.ip packetDropNoRouteFound:sum(packetBytes) 0
scalar SingleCell_D2D.pgw.ipv4.ip packetDropUndefined:count 0
scalar SingleCell_D2D.pgw.ipv4.ip packetDropUndefined:sum(packetBytes) 0
scalar SingleCell_D2D.pgw.ipv4.arp arpResolutionFailed:count 0
scalar SingleCell_D2D.pgw.ipv4.arp arpResolutionCompleted:count 0
scalar SingleCell_D2D.pgw.ipv4.arp arpResolutionInitiated:count 0
scalar SingleCell_D2D.pgw.ipv4.arp arpReplySent:count 0
scalar SingleCell_D2D.pgw.ipv4.arp arpReplySent:sum(packetBytes) 0
scalar SingleCell_D2D.pgw.ipv4.arp arpRequestSent:count 0
scalar SingleCell_D2D.pgw.ipv4.arp arpRequestSent:sum(packetBytes) 0
scalar SingleCell_D2D.pgw.pppIf.queue queueLength:last 0
scalar SingleCell_D2D.pgw.pppIf.queue queueLength:max 0
scalar SingleCell_D2D.pgw.pppIf.queue queueLength:timeavg 0
scalar SingleCell_D2D.pgw.pppIf.queue queueBitLength:last 0
scalar SingleCell_D2D.pgw.pppIf.queue queueBitLength:max 0
scalar SingleCell_D2D.pgw.pppIf.queue queueBitLength:timeavg 0
scalar SingleCell_D2D.pgw.pppIf.queue outgoingPackets:count 0
scalar SingleCell_D2D.pgw.pppIf.queue outgoingPacketLengths:sum 0
scalar SingleCell_D2D.pgw.pppIf.queue incomingPackets:count 0
scalar SingleCell_D2D.pgw.pppIf.queue incomingPacketLengths:sum 0
scalar SingleCell_D2D.pgw.pppIf.queue droppedPacketsQueueOverflow:count 0
scalar SingleCell_D2D.pgw.pppIf.queue droppedPacketLengthsQueueOverflow:sum 0
scalar SingleCell_D2D.pgw.pppIf.ppp transmissionState:timeavg 0
scalar SingleCell_D2D.pgw.pppIf.ppp rxPkOk:count 0
scalar SingleCell_D2D.pgw.pppIf.ppp rxPkOk:sum(packetBytes) 0
scalar SingleCell_D2D.pgw.pppIf.ppp txPk:count 0
scalar SingleCell_D2D.pgw.pppIf.ppp txPk:sum(packetBytes) 0
scalar SingleCell_D2D.pgw.pppIf.ppp rcvdPkFromHl:count 0
scalar SingleCell_D2D.pgw.pppIf.ppp rcvdPkFromHl:sum(packetBytes) 0
scalar SingleCell_D2D.pgw.pppIf.ppp passedUpPk:count 0
scalar SingleCell_D2D.pgw.pppIf.ppp passedUpPk:sum(packetBytes) 0
scalar SingleCell_D2D.pgw.pppIf.ppp packetDropIncorrectlyReceived:count 0
scalar SingleCell_D2D.pgw.pppIf.ppp packetDropIncorrectlyReceived:sum(packetBytes) 0
scalar SingleCell_D2D.pgw.pppIf.ppp packetDropInterfaceDown:count 0
scalar SingleCell_D2D.pgw.pppIf.ppp packetDropInterfaceDown:sum(packetBytes) 0
scalar SingleCell_D2D.pgw.pppIf packetDropInterfaceDown:count 0
scalar SingleCell_D2D.pgw.pppIf packetDropInterfaceDown:sum(packetBytes) 0
scalar SingleCell_D2D.pgw.pppIf packetDropNoCarrier:count 0
scalar SingleCell_D2D.pgw.pppIf packetDropNoCarrier:sum(packetBytes) 0
scalar SingleCell_D2D.pgw.udp packetReceived:count 0
scalar SingleCell_D2D.pgw.udp packetReceived:sum(packetBytes) 0
scalar SingleCell_D2D.pgw.udp packetSent:count 0
scalar SingleCell_D2D.pgw.udp packetSent:sum(packetBytes) 0
scalar SingleCell_D2D.pgw.udp passedUpPk:count 0
scalar SingleCell_D2D.pgw.udp droppedPkWrongPort:count 0
scalar SingleCell_D2D.pgw.udp droppedPkBadChecksum:count 0
scalar SingleCell_D2D.eNB.cellularNic.pdcp sentPacketToLowerLayer:count 0
scalar SingleCell_D2D.eNB.cellularNic.pdcp sentPacketToLowerLayer:sum(packetBytes) 0
scalar SingleCell_D2D.eNB.cellularNic.pdcp sentPacketToUpperLayer:count 0
scalar SingleCell_D2D.eNB.cellularNic.pdcp sentPacketToUpperLayer:sum(packetBytes) 0
scalar SingleCell_D2D.eNB.cellularNic.pdcp receivedPacketFromLowerLayer:count 0
scalar SingleCell_D2D.eNB.cellularNic.pdcp receivedPacketFromLowerLayer:sum(packetBytes) 0
scalar SingleCell_D2D.eNB.cellularNic.pdcp receivedPacketFromUpperLayer:count 0
scalar SingleCell_D2D.eNB.cellularNic.pdcp receivedPacketFromUpperLayer:sum(packetBytes) 0
scalar SingleCell_D2D.eNB.cellularNic.rlc.tm rlcPacketLossUl:mean -nan
scalar SingleCell_D2D.eNB.cellularNic.rlc.tm rlcPacketLossUl:sum 0
scalar SingleCell_D2D.eNB.cellularNic.rlc.tm rlcPacketLossDl:mean -nan
scalar SingleCell_D2D.eNB.cellularNic.rlc.tm rlcPacketLossDl:sum 0
scalar SingleCell_D2D.eNB.cellularNic.rlc.tm sentPacketToLowerLayer:count 0
scalar SingleCell_D2D.eNB.cellularNic.rlc.tm sentPacketToLowerLayer:sum(packetBytes) 0
scalar SingleCell_D2D.eNB.cellularNic.rlc.tm sentPacketToUpperLayer:count 0
scalar SingleCell_D2D.eNB.cellularNic.rlc.tm sentPacketToUpperLayer:sum(packetBytes) 0
scalar SingleCell_D2D.eNB.cellularNic.rlc.tm receivedPacketFromLowerLayer:count 0
scalar SingleCell_D2D.eNB.cellularNic.rlc.tm receivedPacketFromLowerLayer:sum(packetBytes) 0
scalar SingleCell_D2D.eNB.cellularNic.rlc.tm receivedPacketFromUpperLayer:count 0
scalar SingleCell_D2D.eNB.cellularNic.rlc.tm receivedPacketFromUpperLayer:sum(packetBytes) 0
scalar SingleCell_D2D.eNB.cellularNic.rlc.um rlcCellThroughputD2D:mean -nan
scalar SingleCell_D2D.eNB.cellularNic.rlc.um rlcCellPacketLossD2D:mean -nan
scalar SingleCell_D2D.eNB.cellularNic.rlc.um rlcPduThroughputD2D:mean -nan
scalar SingleCell_D2D.eNB.cellularNic.rlc.um rlcPduDelayD2D:mean -nan
scalar SingleCell_D2D.eNB.cellularNic.rlc.um rlcThroughputD2D:mean -nan
scalar SingleCell_D2D.eNB.cellularNic.rlc.um rlcDelayD2D:mean -nan
scalar SingleCell_D2D.eNB.cellularNic.rlc.um rlcPduPacketLossD2D:mean -nan
scalar SingleCell_D2D.eNB.cellularNic.rlc.um rlcPacketLossD2D:mean -nan
scalar SingleCell_D2D.eNB.cellularNic.rlc.um rlcPacketLossTotal:mean -nan
scalar SingleCell_D2D.eNB.cellularNic.rlc.um rlcCellThroughputUl:mean -nan
scalar SingleCell_D2D.eNB.cellularNic.rlc.um rlcCellThroughputDl:mean 12865.7267088385
scalar SingleCell_D2D.eNB.cellularNic.rlc.um rlcPduThroughputUl:mean -nan
scalar SingleCell_D2D.eNB.cellularNic.rlc.um rlcPduThroughputDl:mean -nan
scalar SingleCell_D2D.eNB.cellularNic.rlc.um rlcPduDelayUl:mean -nan
scalar SingleCell_D2D.eNB.cellularNic.rlc.um rlcPduDelayDl:mean -nan
scalar SingleCell_D2D.eNB.cellularNic.rlc.um rlcThroughputUl:mean -nan
scalar SingleCell_D2D.eNB.cellularNic.rlc.um rlcThroughputDl:mean -nan
scalar SingleCell_D2D.eNB.cellularNic.rlc.um rlcDelayUl:mean -nan
scalar SingleCell_D2D.eNB.cellularNic.rlc.um rlcDelayDl:mean -nan
scalar SingleCell_D2D.eNB.cellularNic.rlc.um rlcPduPacketLossUl:mean -nan
scalar SingleCell_D2D.eNB.cellularNic.rlc.um rlcPduPacketLossDl:mean -nan
scalar SingleCell_D2D.eNB.cellularNic.rlc.um rlcPacketLossUl:mean -nan
scalar SingleCell_D2D.eNB.cellularNic.rlc.um rlcPacketLossUl:sum 0
scalar SingleCell_D2D.eNB.cellularNic.rlc.um rlcPacketLossDl:mean -nan
scalar SingleCell_D2D.eNB.cellularNic.rlc.um rlcPacketLossDl:sum 0
scalar SingleCell_D2D.eNB.cellularNic.rlc.um rlcCellPacketLossUl:mean -nan
scalar SingleCell_D2D.eNB.cellularNic.rlc.um rlcCellPacketLossDl:mean 0
scalar SingleCell_D2D.eNB.cellularNic.rlc.um sentPacketToLowerLayer:count 0
scalar SingleCell_D2D.eNB.cellularNic.rlc.um sentPacketToLowerLayer:sum(packetBytes) 0
scalar SingleCell_D2D.eNB.cellularNic.rlc.um sentPacketToUpperLayer:count 0
scalar SingleCell_D2D.eNB.cellularNic.rlc.um sentPacketToUpperLayer:sum(packetBytes) 0
scalar SingleCell_D2D.eNB.cellularNic.rlc.um receivedPacketFromLowerLayer:count 0
scalar SingleCell_D2D.eNB.cellularNic.rlc.um receivedPacketFromLowerLayer:sum(packetBytes) 0
scalar SingleCell_D2D.eNB.cellularNic.rlc.um receivedPacketFromUpperLayer:count 0
scalar SingleCell_D2D.eNB.cellularNic.rlc.um receivedPacketFromUpperLayer:sum(packetBytes) 0
scalar SingleCell_D2D.eNB.cellularNic.rlc.am rlcPacketLossTotal:mean -nan
scalar SingleCell_D2D.eNB.cellularNic.rlc.am rlcCellThroughputUl:mean -nan
scalar SingleCell_D2D.eNB.cellularNic.rlc.am rlcCellThroughputDl:mean -nan
scalar SingleCell_D2D.eNB.cellularNic.rlc.am rlcPduThroughputUl:mean -nan
scalar SingleCell_D2D.eNB.cellularNic.rlc.am rlcPduThroughputDl:mean -nan
scalar SingleCell_D2D.eNB.cellularNic.rlc.am rlcPduDelayUl:mean -nan
scalar SingleCell_D2D.eNB.cellularNic.rlc.am rlcPduDelayDl:mean -nan
scalar SingleCell_D2D.eNB.cellularNic.rlc.am rlcThroughputUl:mean -nan
scalar SingleCell_D2D.eNB.cellularNic.rlc.am rlcThroughputDl:mean -nan
scalar SingleCell_D2D.eNB.cellularNic.rlc.am rlcDelayUl:mean -nan
scalar SingleCell_D2D.eNB.cellularNic.rlc.am rlcDelayDl:mean -nan
scalar SingleCell_D2D.eNB.cellularNic.rlc.am rlcPduPacketLossUl:mean -nan
scalar SingleCell_D2D.eNB.cellularNic.rlc.am rlcPduPacketLossDl:mean -nan
scalar SingleCell_D2D.eNB.cellularNic.rlc.am rlcPacketLossUl:mean -nan
scalar SingleCell_D2D.eNB.cellularNic.rlc.am rlcPacketLossDl:mean -nan
scalar SingleCell_D2D.eNB.cellularNic.rlc.am rlcCellPacketLossUl:mean -nan
scalar SingleCell_D2D.eNB.cellularNic.rlc.am rlcCellPacketLossDl:mean -nan
scalar SingleCell_D2D.eNB.cellularNic.mac avgServedBlocksUl:mean 1.4392
scalar SingleCell_D2D.eNB.cellularNic.mac avgServedBlocksDl:mean 0
scalar SingleCell_D2D.eNB.cellularNic.mac macCellPacketLossD2D:mean 0
scalar SingleCell_D2D.eNB.cellularNic.mac macCellThroughputD2D:mean 14361.801344072304
scalar SingleCell_D2D.eNB.cellularNic.mac harqTxAttemptsUl:mean -nan
scalar SingleCell_D2D.eNB.cellularNic.mac harqTxAttemptsDl:mean -nan
scalar SingleCell_D2D.eNB.cellularNic.mac harqErrorRate_4th_Ul:mean -nan
scalar SingleCell_D2D.eNB.cellularNic.mac harqErrorRate_4th_Dl:mean -nan
scalar SingleCell_D2D.eNB.cellularNic.mac harqErrorRate_3rd_Ul:mean -nan
scalar SingleCell_D2D.eNB.cellularNic.mac harqErrorRate_3rd_Dl:mean -nan
scalar SingleCell_D2D.eNB.cellularNic.mac harqErrorRate_2nd_Ul:mean -nan
scalar SingleCell_D2D.eNB.cellularNic.mac harqErrorRate_2nd_Dl:mean -nan
scalar SingleCell_D2D.eNB.cellularNic.mac harqErrorRate_1st_Ul:mean -nan
scalar SingleCell_D2D.eNB.cellularNic.mac harqErrorRate_1st_Dl:mean -nan
scalar SingleCell_D2D.eNB.cellularNic.mac harqErrorRateUl:mean -nan
scalar SingleCell_D2D.eNB.cellularNic.mac harqErrorRateDl:mean -nan
scalar SingleCell_D2D.eNB.cellularNic.mac macCellPacketLossUl:mean 0
scalar SingleCell_D2D.eNB.cellularNic.mac macCellPacketLossDl:mean -nan
scalar SingleCell_D2D.eNB.cellularNic.mac macPacketLossUl:mean -nan
scalar SingleCell_D2D.eNB.cellularNic.mac macPacketLossDl:mean -nan
scalar SingleCell_D2D.eNB.cellularNic.mac macThroughputUl:mean -nan
scalar SingleCell_D2D.eNB.cellularNic.mac macThroughputDl:mean -nan
scalar SingleCell_D2D.eNB.cellularNic.mac macDelayUl:mean -nan
scalar SingleCell_D2D.eNB.cellularNic.mac macDelayDl:mean -nan
scalar SingleCell_D2D.eNB.cellularNic.mac macCellThroughputUl:mean 14253.439360828135
scalar SingleCell_D2D.eNB.cellularNic.mac macCellThroughputDl:mean -nan
scalar SingleCell_D2D.eNB.cellularNic.mac sentPacketToLowerLayer:count 7093
scalar SingleCell_D2D.eNB.cellularNic.mac sentPacketToLowerLayer:sum(packetBytes) 7093
scalar SingleCell_D2D.eNB.cellularNic.mac sentPacketToUpperLayer:count 0
scalar SingleCell_D2D.eNB.cellularNic.mac sentPacketToUpperLayer:sum(packetBytes) 0
scalar SingleCell_D2D.eNB.cellularNic.mac receivedPacketFromLowerLayer:count 12767
scalar SingleCell_D2D.eNB.cellularNic.mac receivedPacketFromLowerLayer:sum(packetBytes) 14519
scalar SingleCell_D2D.eNB.cellularNic.mac receivedPacketFromUpperLayer:count 0
scalar SingleCell_D2D.eNB.cellularNic.mac receivedPacketFromUpperLayer:sum(packetBytes) 0
scalar SingleCell_D2D.eNB.cellularNic.mac macBufferOverFlowD2D:mean -nan
scalar SingleCell_D2D.eNB.cellularNic.mac macBufferOverFlowUl:mean -nan
scalar SingleCell_D2D.eNB.cellularNic.mac macBufferOverFlowDl:mean -nan
scalar SingleCell_D2D.eNB.cellularNic.channelModel[0] measuredSinrUl:mean -nan
scalar SingleCell_D2D.eNB.cellularNic.channelModel[0] measuredSinrDl:mean -nan
scalar SingleCell_D2D.eNB.cellularNic.channelModel[0] rcvdSinrD2D:mean -nan
scalar SingleCell_D2D.eNB.cellularNic.channelModel[0] rcvdSinrUl:mean -nan
scalar SingleCell_D2D.eNB.cellularNic.channelModel[0] rcvdSinrDl:mean -nan
scalar SingleCell_D2D.eNB.cellularNic packetDropInterfaceDown:count 0
scalar SingleCell_D2D.eNB.cellularNic packetDropInterfaceDown:sum(packetBytes) 0
scalar SingleCell_D2D.eNB.cellularNic packetDropNoCarrier:count 0
scalar SingleCell_D2D.eNB.cellularNic packetDropNoCarrier:sum(packetBytes) 0
scalar SingleCell_D2D.eNB.pppIf.queue queueLength:last 0
scalar SingleCell_D2D.eNB.pppIf.queue queueLength:max 0
scalar SingleCell_D2D.eNB.pppIf.queue queueLength:timeavg 0
scalar SingleCell_D2D.eNB.pppIf.queue queueBitLength:last 0
scalar SingleCell_D2D.eNB.pppIf.queue queueBitLength:max 0
scalar SingleCell_D2D.eNB.pppIf.queue queueBitLength:timeavg 0
scalar SingleCell_D2D.eNB.pppIf.queue outgoingPackets:count 0
scalar SingleCell_D2D.eNB.pppIf.queue outgoingPacketLengths:sum 0
scalar SingleCell_D2D.eNB.pppIf.queue incomingPackets:count 0
scalar SingleCell_D2D.eNB.pppIf.queue incomingPacketLengths:sum 0
scalar SingleCell_D2D.eNB.pppIf.queue droppedPacketsQueueOverflow:count 0
scalar SingleCell_D2D.eNB.pppIf.queue droppedPacketLengthsQueueOverflow:sum 0
scalar SingleCell_D2D.eNB.pppIf.ppp transmissionState:timeavg 0
scalar SingleCell_D2D.eNB.pppIf.ppp rxPkOk:count 0
scalar SingleCell_D2D.eNB.pppIf.ppp rxPkOk:sum(packetBytes) 0
scalar SingleCell_D2D.eNB.pppIf.ppp txPk:count 0
scalar SingleCell_D2D.eNB.pppIf.ppp txPk:sum(packetBytes) 0
scalar SingleCell_D2D.eNB.pppIf.ppp rcvdPkFromHl:count 0
scalar SingleCell_D2D.eNB.pppIf.ppp rcvdPkFromHl:sum(packetBytes) 0
scalar SingleCell_D2D.eNB.pppIf.ppp passedUpPk:count 0
scalar SingleCell_D2D.eNB.pppIf.ppp passedUpPk:sum(packetBytes) 0
scalar SingleCell_D2D.eNB.pppIf.ppp packetDropIncorrectlyReceived:count 0
scalar SingleCell_D2D.eNB.pppIf.ppp packetDropIncorrectlyReceived:sum(packetBytes) 0
scalar SingleCell_D2D.eNB.pppIf.ppp packetDropInterfaceDown:count 0
scalar SingleCell_D2D.eNB.pppIf.ppp packetDropInterfaceDown:sum(packetBytes) 0
scalar SingleCell_D2D.eNB.pppIf packetDropInterfaceDown:count 0
scalar SingleCell_D2D.eNB.pppIf packetDropInterfaceDown:sum(packetBytes) 0
scalar SingleCell_D2D.eNB.pppIf packetDropNoCarrier:count 0
scalar SingleCell_D2D.eNB.pppIf packetDropNoCarrier:sum(packetBytes) 0
scalar SingleCell_D2D.eNB.pppMEHostIf.queue queueLength:last 0
scalar SingleCell_D2D.eNB.pppMEHostIf.queue queueLength:max 0
scalar SingleCell_D2D.eNB.pppMEHostIf.queue queueLength:timeavg 0
scalar SingleCell_D2D.eNB.pppMEHostIf.queue queueBitLength:last 0
scalar SingleCell_D2D.eNB.pppMEHostIf.queue queueBitLength:max 0
scalar SingleCell_D2D.eNB.pppMEHostIf.queue queueBitLength:timeavg 0
scalar SingleCell_D2D.eNB.pppMEHostIf.queue outgoingPackets:count 0
scalar SingleCell_D2D.eNB.pppMEHostIf.queue outgoingPacketLengths:sum 0
scalar SingleCell_D2D.eNB.pppMEHostIf.queue incomingPackets:count 0
scalar SingleCell_D2D.eNB.pppMEHostIf.queue incomingPacketLengths:sum 0
scalar SingleCell_D2D.eNB.pppMEHostIf.queue droppedPacketsQueueOverflow:count 0
scalar SingleCell_D2D.eNB.pppMEHostIf.queue droppedPacketLengthsQueueOverflow:sum 0
scalar SingleCell_D2D.eNB.pppMEHostIf.ppp transmissionState:timeavg 0
scalar SingleCell_D2D.eNB.pppMEHostIf.ppp rxPkOk:count 0
scalar SingleCell_D2D.eNB.pppMEHostIf.ppp rxPkOk:sum(packetBytes) 0
scalar SingleCell_D2D.eNB.pppMEHostIf.ppp txPk:count 0
scalar SingleCell_D2D.eNB.pppMEHostIf.ppp txPk:sum(packetBytes) 0
scalar SingleCell_D2D.eNB.pppMEHostIf.ppp rcvdPkFromHl:count 0
scalar SingleCell_D2D.eNB.pppMEHostIf.ppp rcvdPkFromHl:sum(packetBytes) 0
scalar SingleCell_D2D.eNB.pppMEHostIf.ppp passedUpPk:count 0
scalar SingleCell_D2D.eNB.pppMEHostIf.ppp passedUpPk:sum(packetBytes) 0
scalar SingleCell_D2D.eNB.pppMEHostIf.ppp packetDropIncorrectlyReceived:count 0
scalar SingleCell_D2D.eNB.pppMEHostIf.ppp packetDropIncorrectlyReceived:sum(packetBytes) 0
scalar SingleCell_D2D.eNB.pppMEHostIf.ppp packetDropInterfaceDown:count 0
scalar SingleCell_D2D.eNB.pppMEHostIf.ppp packetDropInterfaceDown:sum(packetBytes) 0
scalar SingleCell_D2D.eNB.pppMEHostIf packetDropInterfaceDown:count 0
scalar SingleCell_D2D.eNB.pppMEHostIf packetDropInterfaceDown:sum(packetBytes) 0
scalar SingleCell_D2D.eNB.pppMEHostIf packetDropNoCarrier:count 0
scalar SingleCell_D2D.eNB.pppMEHostIf packetDropNoCarrier:sum(packetBytes) 0
scalar SingleCell_D2D.eNB.ipv4.ip packetDropAddressResolutionFailed:count 0
scalar SingleCell_D2D.eNB.ipv4.ip packetDropAddressResolutionFailed:sum(packetBytes) 0
scalar SingleCell_D2D.eNB.ipv4.ip packetDropHopLimitReached:count 0
scalar SingleCell_D2D.eNB.ipv4.ip packetDropHopLimitReached:sum(packetBytes) 0
scalar SingleCell_D2D.eNB.ipv4.ip packetDropForwardingDisabled:count 0
scalar SingleCell_D2D.eNB.ipv4.ip packetDropForwardingDisabled:sum(packetBytes) 0
scalar SingleCell_D2D.eNB.ipv4.ip packetDropNoInterfaceFound:count 0
scalar SingleCell_D2D.eNB.ipv4.ip packetDropNoInterfaceFound:sum(packetBytes) 0
scalar SingleCell_D2D.eNB.ipv4.ip packetDropNoRouteFound:count 0
scalar SingleCell_D2D.eNB.ipv4.ip packetDropNoRouteFound:sum(packetBytes) 0
scalar SingleCell_D2D.eNB.ipv4.ip packetDropUndefined:count 0
scalar SingleCell_D2D.eNB.ipv4.ip packetDropUndefined:sum(packetBytes) 0
scalar SingleCell_D2D.eNB.ipv4.arp arpResolutionFailed:count 0
scalar SingleCell_D2D.eNB.ipv4.arp arpResolutionCompleted:count 0
scalar SingleCell_D2D.eNB.ipv4.arp arpResolutionInitiated:count 0
scalar SingleCell_D2D.eNB.ipv4.arp arpReplySent:count 0
scalar SingleCell_D2D.eNB.ipv4.arp arpReplySent:sum(packetBytes) 0
scalar SingleCell_D2D.eNB.ipv4.arp arpRequestSent:count 0
scalar SingleCell_D2D.eNB.ipv4.arp arpRequestSent:sum(packetBytes) 0
scalar SingleCell_D2D.eNB.udp packetReceived:count 0
scalar SingleCell_D2D.eNB.udp packetReceived:sum(packetBytes) 0
scalar SingleCell_D2D.eNB.udp packetSent:count 0
scalar SingleCell_D2D.eNB.udp packetSent:sum(packetBytes) 0
scalar SingleCell_D2D.eNB.udp passedUpPk:count 0
scalar SingleCell_D2D.eNB.udp droppedPkWrongPort:count 0
scalar SingleCell_D2D.eNB.udp droppedPkBadChecksum:count 0
scalar SingleCell_D2D.ueD2DTx[0].lo[0].lo rcvdPkFromHl:count 0
scalar SingleCell_D2D.ueD2DTx[0].lo[0].lo rcvdPkFromHl:sum(packetBytes) 0
scalar SingleCell_D2D.ueD2DTx[0].lo[0].lo passedUpPk:count 0
scalar SingleCell_D2D.ueD2DTx[0].lo[0].lo passedUpPk:sum(packetBytes) 0
scalar SingleCell_D2D.ueD2DTx[0].lo[0] packetDropInterfaceDown:count 0
scalar SingleCell_D2D.ueD2DTx[0].lo[0] packetDropInterfaceDown:sum(packetBytes) 0
scalar SingleCell_D2D.ueD2DTx[0].lo[0] packetDropNoCarrier:count 0
scalar SingleCell_D2D.ueD2DTx[0].lo[0] packetDropNoCarrier:sum(packetBytes) 0
scalar SingleCell_D2D.ueD2DTx[0].cellularNic.pdcp sentPacketToLowerLayer:count 229
scalar SingleCell_D2D.ueD2DTx[0].cellularNic.pdcp sentPacketToLowerLayer:sum(packetBytes) 15801
scalar SingleCell_D2D.ueD2DTx[0].cellularNic.pdcp sentPacketToUpperLayer:count 0
scalar SingleCell_D2D.ueD2DTx[0].cellularNic.pdcp sentPacketToUpperLayer:sum(packetBytes) 0
scalar SingleCell_D2D.ueD2DTx[0].cellularNic.pdcp receivedPacketFromLowerLayer:count 0
scalar SingleCell_D2D.ueD2DTx[0].cellularNic.pdcp receivedPacketFromLowerLayer:sum(packetBytes) 0
scalar SingleCell_D2D.ueD2DTx[0].cellularNic.pdcp receivedPacketFromUpperLayer:count 229
scalar SingleCell_D2D.ueD2DTx[0].cellularNic.pdcp receivedPacketFromUpperLayer:sum(packetBytes) 15572
scalar SingleCell_D2D.ueD2DTx[0].cellularNic.rlc.tm rlcPacketLossUl:mean -nan
scalar SingleCell_D2D.ueD2DTx[0].cellularNic.rlc.tm rlcPacketLossUl:sum 0
scalar SingleCell_D2D.ueD2DTx[0].cellularNic.rlc.tm rlcPacketLossDl:mean -nan
scalar SingleCell_D2D.ueD2DTx[0].cellularNic.rlc.tm rlcPacketLossDl:sum 0
scalar SingleCell_D2D.ueD2DTx[0].cellularNic.rlc.tm sentPacketToLowerLayer:count 0
scalar SingleCell_D2D.ueD2DTx[0].cellularNic.rlc.tm sentPacketToLowerLayer:sum(packetBytes) 0
scalar SingleCell_D2D.ueD2DTx[0].cellularNic.rlc.tm sentPacketToUpperLayer:count 0
scalar SingleCell_D2D.ueD2DTx[0].cellularNic.rlc.tm sentPacketToUpperLayer:sum(packetBytes) 0
scalar SingleCell_D2D.ueD2DTx[0].cellularNic.rlc.tm receivedPacketFromLowerLayer:count 0
scalar SingleCell_D2D.ueD2DTx[0].cellularNic.rlc.tm receivedPacketFromLowerLayer:sum(packetBytes) 0
scalar SingleCell_D2D.ueD2DTx[0].cellularNic.rlc.tm receivedPacketFromUpperLayer:count 0
scalar SingleCell_D2D.ueD2DTx[0].cellularNic.rlc.tm receivedPacketFromUpperLayer:sum(packetBytes) 0
scalar SingleCell_D2D.ueD2DTx[0].cellularNic.rlc.um rlcCellThroughputD2D:mean -nan
scalar SingleCell_D2D.ueD2DTx[0].cellularNic.rlc.um rlcCellPacketLossD2D:mean -nan
scalar SingleCell_D2D.ueD2DTx[0].cellularNic.rlc.um rlcPduThroughputD2D:mean -nan
scalar SingleCell_D2D.ueD2DTx[0].cellularNic.rlc.um rlcPduDelayD2D:mean -nan
scalar SingleCell_D2D.ueD2DTx[0].cellularNic.rlc.um rlcThroughputD2D:mean -nan
scalar SingleCell_D2D.ueD2DTx[0].cellularNic.rlc.um rlcDelayD2D:mean -nan
scalar SingleCell_D2D.ueD2DTx[0].cellularNic.rlc.um rlcPduPacketLossD2D:mean -nan
scalar SingleCell_D2D.ueD2DTx[0].cellularNic.rlc.um rlcPacketLossD2D:mean -nan
scalar SingleCell_D2D.ueD2DTx[0].cellularNic.rlc.um rlcPacketLossTotal:mean -nan
scalar SingleCell_D2D.ueD2DTx[0].cellularNic.rlc.um rlcCellThroughputUl:mean -nan
scalar SingleCell_D2D.ueD2DTx[0].cellularNic.rlc.um rlcCellThroughputDl:mean -nan
scalar SingleCell_D2D.ueD2DTx[0].cellularNic.rlc.um rlcPduThroughputUl:mean -nan
scalar SingleCell_D2D.ueD2DTx[0].cellularNic.rlc.um rlcPduThroughputDl:mean -nan
scalar SingleCell_D2D.ueD2DTx[0].cellularNic.rlc.um rlcPduDelayUl:mean -nan
scalar SingleCell_D2D.ueD2DTx[0].cellularNic.rlc.um rlcPduDelayDl:mean -nan
scalar SingleCell_D2D.ueD2DTx[0].cellularNic.rlc.um rlcThroughputUl:mean -nan
scalar SingleCell_D2D.ueD2DTx[0].cellularNic.rlc.um rlcThroughputDl:mean -nan
scalar SingleCell_D2D.ueD2DTx[0].cellularNic.rlc.um rlcDelayUl:mean -nan
scalar SingleCell_D2D.ueD2DTx[0].cellularNic.rlc.um rlcDelayDl:mean -nan
scalar SingleCell_D2D.ueD2DTx[0].cellularNic.rlc.um rlcPduPacketLossUl:mean -nan
scalar SingleCell_D2D.ueD2DTx[0].cellularNic.rlc.um rlcPduPacketLossDl:mean -nan
scalar SingleCell_D2D.ueD2DTx[0].cellularNic.rlc.um rlcPacketLossUl:mean -nan
scalar SingleCell_D2D.ueD2DTx[0].cellularNic.rlc.um rlcPacketLossUl:sum 0
scalar SingleCell_D2D.ueD2DTx[0].cellularNic.rlc.um rlcPacketLossDl:mean -nan
scalar SingleCell_D2D.ueD2DTx[0].cellularNic.rlc.um rlcPacketLossDl:sum 0
scalar SingleCell_D2D.ueD2DTx[0].cellularNic.rlc.um rlcCellPacketLossUl:mean -nan
scalar SingleCell_D2D.ueD2DTx[0].cellularNic.rlc.um rlcCellPacketLossDl:mean -nan
scalar SingleCell_D2D.ueD2DTx[0].cellularNic.rlc.um sentPacketToLowerLayer:count 228
scalar SingleCell_D2D.ueD2DTx[0].cellularNic.rlc.um sentPacketToLowerLayer:sum(packetBytes) 16188
scalar SingleCell_D2D.ueD2DTx[0].cellularNic.rlc.um sentPacketToUpperLayer:count 0
scalar SingleCell_D2D.ueD2DTx[0].cellularNic.rlc.um sentPacketToUpperLayer:sum(packetBytes) 0
scalar SingleCell_D2D.ueD2DTx[0].cellularNic.rlc.um receivedPacketFromLowerLayer:count 0
scalar SingleCell_D2D.ueD2DTx[0].cellularNic.rlc.um receivedPacketFromLowerLayer:sum(packetBytes) 0
scalar SingleCell_D2D.ueD2DTx[0].cellularNic.rlc.um receivedPacketFromUpperLayer:count 229
scalar SingleCell_D2D.ueD2DTx[0].cellularNic.rlc.um receivedPacketFromUpperLayer:sum(packetBytes) 15801
scalar SingleCell_D2D.ueD2DTx[0].cellularNic.rlc.am rlcPacketLossTotal:mean -nan
scalar SingleCell_D2D.ueD2DTx[0].cellularNic.rlc.am rlcCellThroughputUl:mean -nan
scalar SingleCell_D2D.ueD2DTx[0].cellularNic.rlc.am rlcCellThroughputDl:mean -nan
scalar SingleCell_D2D.ueD2DTx[0].cellularNic.rlc.am rlcPduThroughputUl:mean -nan
scalar SingleCell_D2D.ueD2DTx[0].cellularNic.rlc.am rlcPduThroughputDl:mean -nan
scalar SingleCell_D2D.ueD2DTx[0].cellularNic.rlc.am rlcPduDelayUl:mean -nan
scalar SingleCell_D2D.ueD2DTx[0].cellularNic.rlc.am rlcPduDelayDl:mean -nan
scalar SingleCell_D2D.ueD2DTx[0].cellularNic.rlc.am rlcThroughputUl:mean -nan
scalar SingleCell_D2D.ueD2DTx[0].cellularNic.rlc.am rlcThroughputDl:mean -nan
scalar SingleCell_D2D.ueD2DTx[0].cellularNic.rlc.am rlcDelayUl:mean -nan
scalar SingleCell_D2D.ueD2DTx[0].cellularNic.rlc.am rlcDelayDl:mean -nan
scalar SingleCell_D2D.ueD2DTx[0].cellularNic.rlc.am rlcPduPacketLossUl:mean -nan
scalar SingleCell_D2D.ueD2DTx[0].cellularNic.rlc.am rlcPduPacketLossDl:mean -nan
scalar SingleCell_D2D.ueD2DTx[0].cellularNic.rlc.am rlcPacketLossUl:mean -nan
scalar SingleCell_D2D.ueD2DTx[0].cellularNic.rlc.am rlcPacketLossDl:mean -nan
scalar SingleCell_D2D.ueD2DTx[0].cellularNic.rlc.am rlcCellPacketLossUl:mean -nan
scalar SingleCell_D2D.ueD2DTx[0].cellularNic.rlc.am rlcCellPacketLossDl:mean -nan
scalar SingleCell_D2D.ueD2DTx[0].cellularNic.mac harqErrorRate_4th_D2D:mean -nan
scalar SingleCell_D2D.ueD2DTx[0].cellularNic.mac harqErrorRate_3rd_D2D:mean -nan
scalar SingleCell_D2D.ueD2DTx[0].cellularNic.mac harqErrorRate_2nd_D2D:mean -nan
scalar SingleCell_D2D.ueD2DTx[0].cellularNic.mac harqErrorRate_1st_D2D:mean -nan
scalar SingleCell_D2D.ueD2DTx[0].cellularNic.mac harqErrorRateD2D:mean -nan
scalar SingleCell_D2D.ueD2DTx[0].cellularNic.mac macPacketLossD2D:mean -nan
scalar SingleCell_D2D.ueD2DTx[0].cellularNic.mac macDelayD2D:mean -nan
scalar SingleCell_D2D.ueD2DTx[0].cellularNic.mac macThroughputD2D:mean -nan
scalar SingleCell_D2D.ueD2DTx[0].cellularNic.mac harqTxAttemptsUl:mean 1
scalar SingleCell_D2D.ueD2DTx[0].cellularNic.mac harqTxAttemptsDl:mean -nan
scalar SingleCell_D2D.ueD2DTx[0].cellularNic.mac harqErrorRate_4th_Ul:mean -nan
scalar SingleCell_D2D.ueD2DTx[0].cellularNic.mac harqErrorRate_4th_Dl:mean -nan
scalar SingleCell_D2D.ueD2DTx[0].cellularNic.mac harqErrorRate_3rd_Ul:mean -nan
scalar SingleCell_D2D.ueD2DTx[0].cellularNic.mac harqErrorRate_3rd_Dl:mean -nan
scalar SingleCell_D2D.ueD2DTx[0].cellularNic.mac harqErrorRate_2nd_Ul:mean -nan
scalar SingleCell_D2D.ueD2DTx[0].cellularNic.mac harqErrorRate_2nd_Dl:mean -nan
scalar SingleCell_D2D.ueD2DTx[0].cellularNic.mac harqErrorRate_1st_Ul:mean 0
scalar SingleCell_D2D.ueD2DTx[0].cellularNic.mac harqErrorRate_1st_Dl:mean -nan
scalar SingleCell_D2D.ueD2DTx[0].cellularNic.mac harqErrorRateUl:mean 0
scalar SingleCell_D2D.ueD2DTx[0].cellularNic.mac harqErrorRateDl:mean -nan
scalar SingleCell_D2D.ueD2DTx[0].cellularNic.mac macCellPacketLossUl:mean -nan
scalar SingleCell_D2D.ueD2DTx[0].cellularNic.mac macCellPacketLossDl:mean -nan
scalar SingleCell_D2D.ueD2DTx[0].cellularNic.mac macPacketLossUl:mean 0
scalar SingleCell_D2D.ueD2DTx[0].cellularNic.mac macPacketLossDl:mean -nan
scalar SingleCell_D2D.ueD2DTx[0].cellularNic.mac macThroughputUl:mean 197.59808702291184
scalar SingleCell_D2D.ueD2DTx[0].cellularNic.mac macThroughputDl:mean -nan
scalar SingleCell_D2D.ueD2DTx[0].cellularNic.mac macDelayUl:mean 0.0040000000000000027
scalar SingleCell_D2D.ueD2DTx[0].cellularNic.mac macDelayDl:mean -nan
scalar SingleCell_D2D.ueD2DTx[0].cellularNic.mac macCellThroughputUl:mean -nan
scalar SingleCell_D2D.ueD2DTx[0].cellularNic.mac macCellThroughputDl:mean -nan
scalar SingleCell_D2D.ueD2DTx[0].cellularNic.mac rcvdD2DModeSwitchNotification:count 0
scalar SingleCell_D2D.ueD2DTx[0].cellularNic.mac sentPacketToLowerLayer:count 1185
scalar SingleCell_D2D.ueD2DTx[0].cellularNic.mac sentPacketToLowerLayer:sum(packetBytes) 18202
scalar SingleCell_D2D.ueD2DTx[0].cellularNic.mac sentPacketToUpperLayer:count 228
scalar SingleCell_D2D.ueD2DTx[0].cellularNic.mac sentPacketToUpperLayer:sum(packetBytes) 228
scalar SingleCell_D2D.ueD2DTx[0].cellularNic.mac receivedPacketFromLowerLayer:count 2138
scalar SingleCell_D2D.ueD2DTx[0].cellularNic.mac receivedPacketFromLowerLayer:sum(packetBytes) 2138
scalar SingleCell_D2D.ueD2DTx[0].cellularNic.mac receivedPacketFromUpperLayer:count 457
scalar SingleCell_D2D.ueD2DTx[0].cellularNic.mac receivedPacketFromUpperLayer:sum(packetBytes) 32447
scalar SingleCell_D2D.ueD2DTx[0].cellularNic.mac macBufferOverFlowD2D:mean -nan
scalar SingleCell_D2D.ueD2DTx[0].cellularNic.mac macBufferOverFlowUl:mean -nan
scalar SingleCell_D2D.ueD2DTx[0].cellularNic.mac macBufferOverFlowDl:mean -nan
scalar SingleCell_D2D.ueD2DTx[0].cellularNic.phy distance:mean -nan
scalar SingleCell_D2D.ueD2DTx[0].cellularNic.phy averageCqiD2D:mean 14.095652173913043
scalar SingleCell_D2D.ueD2DTx[0].cellularNic.phy averageCqiUl:mean 15
scalar SingleCell_D2D.ueD2DTx[0].cellularNic.phy averageCqiUl:count 457
scalar SingleCell_D2D.ueD2DTx[0].cellularNic.phy averageCqiDl:mean -nan
scalar SingleCell_D2D.ueD2DTx[0].cellularNic.phy averageCqiDl:count 0
scalar SingleCell_D2D.ueD2DTx[0].cellularNic.channelModel[0] measuredSinrUl:mean 49.577810648848242
scalar SingleCell_D2D.ueD2DTx[0].cellularNic.channelModel[0] measuredSinrDl:mean 67.966846642659732
scalar SingleCell_D2D.ueD2DTx[0].cellularNic.channelModel[0] rcvdSinrD2D:mean -nan
scalar SingleCell_D2D.ueD2DTx[0].cellularNic.channelModel[0] rcvdSinrUl:mean 48.797475896780213
scalar SingleCell_D2D.ueD2DTx[0].cellularNic.channelModel[0] rcvdSinrDl:mean -nan
scalar SingleCell_D2D.ueD2DTx[0].cellularNic packetDropInterfaceDown:count 0
scalar SingleCell_D2D.ueD2DTx[0].cellularNic packetDropInterfaceDown:sum(packetBytes) 0
scalar SingleCell_D2D.ueD2DTx[0].cellularNic packetDropNoCarrier:count 0
scalar SingleCell_D2D.ueD2DTx[0].cellularNic packetDropNoCarrier:sum(packetBytes) 0
scalar SingleCell_D2D.ueD2DTx[0].encap pauseSent:count 0
scalar SingleCell_D2D.ueD2DTx[0].encap pauseSent:sum 0
scalar SingleCell_D2D.ueD2DTx[0].encap decapPk:count 0
scalar SingleCell_D2D.ueD2DTx[0].encap decapPk:sum(packetBytes) 0
scalar SingleCell_D2D.ueD2DTx[0].encap encapPk:count 0
scalar SingleCell_D2D.ueD2DTx[0].encap encapPk:sum(packetBytes) 0
scalar SingleCell_D2D.ueD2DTx[0].ipv4.ip packetDropAddressResolutionFailed:count 0
scalar SingleCell_D2D.ueD2DTx[0].ipv4.ip packetDropAddressResolutionFailed:sum(packetBytes) 0
scalar SingleCell_D2D.ueD2DTx[0].ipv4.ip packetDropHopLimitReached:count 0
scalar SingleCell_D2D.ueD2DTx[0].ipv4.ip packetDropHopLimitReached:sum(packetBytes) 0
scalar SingleCell_D2D.ueD2DTx[0].ipv4.ip packetDropForwardingDisabled:count 0
scalar SingleCell_D2D.ueD2DTx[0].ipv4.ip packetDropForwardingDisabled:sum(packetBytes) 0
scalar SingleCell_D2D.ueD2DTx[0].ipv4.ip packetDropNoInterfaceFound:count 0
scalar SingleCell_D2D.ueD2DTx[0].ipv4.ip packetDropNoInterfaceFound:sum(packetBytes) 0
scalar SingleCell_D2D.ueD2DTx[0].ipv4.ip packetDropNoRouteFound:count 0
scalar SingleCell_D2D.ueD2DTx[0].ipv4.ip packetDropNoRouteFound:sum(packetBytes) 0
scalar SingleCell_D2D.ueD2DTx[0].ipv4.ip packetDropUndefined:count 0
scalar SingleCell_D2D.ueD2DTx[0].ipv4.ip packetDropUndefined:sum(packetBytes) 0
scalar SingleCell_D2D.ueD2DTx[0].ipv4.arp arpResolutionFailed:count 0
scalar SingleCell_D2D.ueD2DTx[0].ipv4.arp arpResolutionCompleted:count 0
scalar SingleCell_D2D.ueD2DTx[0].ipv4.arp arpResolutionInitiated:count 0
scalar SingleCell_D2D.ueD2DTx[0].ipv4.arp arpReplySent:count 0
scalar SingleCell_D2D.ueD2DTx[0].ipv4.arp arpReplySent:sum(packetBytes) 0
scalar SingleCell_D2D.ueD2DTx[0].ipv4.arp arpRequestSent:count 0
scalar SingleCell_D2D.ueD2DTx[0].ipv4.arp arpRequestSent:sum(packetBytes) 0
scalar SingleCell_D2D.ueD2DTx[0].udp packetReceived:count 0
scalar SingleCell_D2D.ueD2DTx[0].udp packetReceived:sum(packetBytes) 0
scalar SingleCell_D2D.ueD2DTx[0].udp packetSent:count 229
scalar SingleCell_D2D.ueD2DTx[0].udp packetSent:sum(packetBytes) 10992
scalar SingleCell_D2D.ueD2DTx[0].udp passedUpPk:count 0
scalar SingleCell_D2D.ueD2DTx[0].udp droppedPkWrongPort:count 0
scalar SingleCell_D2D.ueD2DTx[0].udp droppedPkBadChecksum:count 0
scalar SingleCell_D2D.ueD2DTx[0].app[0] voIPGeneratedThroughput:mean 2022.8044435922523
scalar SingleCell_D2D.ueD2DTx[1].lo[0].lo rcvdPkFromHl:count 0
scalar SingleCell_D2D.ueD2DTx[1].lo[0].lo rcvdPkFromHl:sum(packetBytes) 0
scalar SingleCell_D2D.ueD2DTx[1].lo[0].lo passedUpPk:count 0
scalar SingleCell_D2D.ueD2DTx[1].lo[0].lo passedUpPk:sum(packetBytes) 0
scalar SingleCell_D2D.ueD2DTx[1].lo[0] packetDropInterfaceDown:count 0
scalar SingleCell_D2D.ueD2DTx[1].lo[0] packetDropInterfaceDown:sum(packetBytes) 0
scalar SingleCell_D2D.ueD2DTx[1].lo[0] packetDropNoCarrier:count 0
scalar SingleCell_D2D.ueD2DTx[1].lo[0] packetDropNoCarrier:sum(packetBytes) 0
scalar SingleCell_D2D.ueD2DTx[1].cellularNic.pdcp sentPacketToLowerLayer:count 167
scalar SingleCell_D2D.ueD2DTx[1].cellularNic.pdcp sentPacketToLowerLayer:sum(packetBytes) 11523
scalar SingleCell_D2D.ueD2DTx[1].cellularNic.pdcp sentPacketToUpperLayer:count 0
scalar SingleCell_D2D.ueD2DTx[1].cellularNic.pdcp sentPacketToUpperLayer:sum(packetBytes) 0
scalar SingleCell_D2D.ueD2DTx[1].cellularNic.pdcp receivedPacketFromLowerLayer:count 0
scalar SingleCell_D2D.ueD2DTx[1].cellularNic.pdcp receivedPacketFromLowerLayer:sum(packetBytes) 0
scalar SingleCell_D2D.ueD2DTx[1].cellularNic.pdcp receivedPacketFromUpperLayer:count 167
scalar SingleCell_D2D.ueD2DTx[1].cellularNic.pdcp receivedPacketFromUpperLayer:sum(packetBytes) 11356
scalar SingleCell_D2D.ueD2DTx[1].cellularNic.rlc.tm rlcPacketLossUl:mean -nan
scalar SingleCell_D2D.ueD2DTx[1].cellularNic.rlc.tm rlcPacketLossUl:sum 0
scalar SingleCell_D2D.ueD2DTx[1].cellularNic.rlc.tm rlcPacketLossDl:mean -nan
scalar SingleCell_D2D.ueD2DTx[1].cellularNic.rlc.tm rlcPacketLossDl:sum 0
scalar SingleCell_D2D.ueD2DTx[1].cellularNic.rlc.tm sentPacketToLowerLayer:count 0
scalar SingleCell_D2D.ueD2DTx[1].cellularNic.rlc.tm sentPacketToLowerLayer:sum(packetBytes) 0
scalar SingleCell_D2D.ueD2DTx[1].cellularNic.rlc.tm sentPacketToUpperLayer:count 0
scalar SingleCell_D2D.ueD2DTx[1].cellularNic.rlc.tm sentPacketToUpperLayer:sum(packetBytes) 0
scalar SingleCell_D2D.ueD2DTx[1].cellularNic.rlc.tm receivedPacketFromLowerLayer:count 0
scalar SingleCell_D2D.ueD2DTx[1].cellularNic.rlc.tm receivedPacketFromLowerLayer:sum(packetBytes) 0
scalar SingleCell_D2D.ueD2DTx[1].cellularNic.rlc.tm receivedPacketFromUpperLayer:count 0
scalar SingleCell_D2D.ueD2DTx[1].cellularNic.rlc.tm receivedPacketFromUpperLayer:sum(packetBytes) 0
scalar SingleCell_D2D.ueD2DTx[1].cellularNic.rlc.um rlcCellThroughputD2D:mean -nan
scalar SingleCell_D2D.ueD2DTx[1].cellularNic.rlc.um rlcCellPacketLossD2D:mean -nan
scalar SingleCell_D2D.ueD2DTx[1].cellularNic.rlc.um rlcPduThroughputD2D:mean -nan
scalar SingleCell_D2D.ueD2DTx[1].cellularNic.rlc.um rlcPduDelayD2D:mean -nan
scalar SingleCell_D2D.ueD2DTx[1].cellularNic.rlc.um rlcThroughputD2D:mean -nan
scalar SingleCell_D2D.ueD2DTx[1].cellularNic.rlc.um rlcDelayD2D:mean -nan
scalar SingleCell_D2D.ueD2DTx[1].cellularNic.rlc.um rlcPduPacketLossD2D:mean -nan
scalar SingleCell_D2D.ueD2DTx[1].cellularNic.rlc.um rlcPacketLossD2D:mean -nan
scalar SingleCell_D2D.ueD2DTx[1].cellularNic.rlc.um rlcPacketLossTotal:mean -nan
scalar SingleCell_D2D.ueD2DTx[1].cellularNic.rlc.um rlcCellThroughputUl:mean -nan
scalar SingleCell_D2D.ueD2DTx[1].cellularNic.rlc.um rlcCellThroughputDl:mean -nan
scalar SingleCell_D2D.ueD2DTx[1].cellularNic.rlc.um rlcPduThroughputUl:mean -nan
scalar SingleCell_D2D.ueD2DTx[1].cellularNic.rlc.um rlcPduThroughputDl:mean -nan
scalar SingleCell_D2D.ueD2DTx[1].cellularNic.rlc.um rlcPduDelayUl:mean -nan
scalar SingleCell_D2D.ueD2DTx[1].cellularNic.rlc.um rlcPduDelayDl:mean -nan
scalar SingleCell_D2D.ueD2DTx[1].cellularNic.rlc.um rlcThroughputUl:mean -nan
scalar SingleCell_D2D.ueD2DTx[1].cellularNic.rlc.um rlcThroughputDl:mean -nan
scalar SingleCell_D2D.ueD2DTx[1].cellularNic.rlc.um rlcDelayUl:mean -nan
scalar SingleCell_D2D.ueD2DTx[1].cellularNic.rlc.um rlcDelayDl:mean -nan
scalar SingleCell_D2D.ueD2DTx[1].cellularNic.rlc.um rlcPduPacketLossUl:mean -nan
scalar SingleCell_D2D.ueD2DTx[1].cellularNic.rlc.um rlcPduPacketLossDl:mean -nan
scalar SingleCell_D2D.ueD2DTx[1].cellularNic.rlc.um rlcPacketLossUl:mean -nan
scalar SingleCell_D2D.ueD2DTx[1].cellularNic.rlc.um rlcPacketLossUl:sum 0
scalar SingleCell_D2D.ueD2DTx[1].cellularNic.rlc.um rlcPacketLossDl:mean -nan
scalar SingleCell_D2D.ueD2DTx[1].cellularNic.rlc.um rlcPacketLossDl:sum 0
scalar SingleCell_D2D.ueD2DTx[1].cellularNic.rlc.um rlcCellPacketLossUl:mean -nan
scalar SingleCell_D2D.ueD2DTx[1].cellularNic.rlc.um rlcCellPacketLossDl:mean -nan
scalar SingleCell_D2D.ueD2DTx[1].cellularNic.rlc.um sentPacketToLowerLayer:count 166
scalar SingleCell_D2D.ueD2DTx[1].cellularNic.rlc.um sentPacketToLowerLayer:sum(packetBytes) 11786
scalar SingleCell_D2D.ueD2DTx[1].cellularNic.rlc.um sentPacketToUpperLayer:count 0
scalar SingleCell_D2D.ueD2DTx[1].cellularNic.rlc.um sentPacketToUpperLayer:sum(packetBytes) 0
scalar SingleCell_D2D.ueD2DTx[1].cellularNic.rlc.um receivedPacketFromLowerLayer:count 0
scalar SingleCell_D2D.ueD2DTx[1].cellularNic.rlc.um receivedPacketFromLowerLayer:sum(packetBytes) 0
scalar SingleCell_D2D.ueD2DTx[1].cellularNic.rlc.um receivedPacketFromUpperLayer:count 167
scalar SingleCell_D2D.ueD2DTx[1].cellularNic.rlc.um receivedPacketFromUpperLayer:sum(packetBytes) 11523
scalar SingleCell_D2D.ueD2DTx[1].cellularNic.rlc.am rlcPacketLossTotal:mean -nan
scalar SingleCell_D2D.ueD2DTx[1].cellularNic.rlc.am rlcCellThroughputUl:mean -nan
scalar SingleCell_D2D.ueD2DTx[1].cellularNic.rlc.am rlcCellThroughputDl:mean -nan
scalar SingleCell_D2D.ueD2DTx[1].cellularNic.rlc.am rlcPduThroughputUl:mean -nan
scalar SingleCell_D2D.ueD2DTx[1].cellularNic.rlc.am rlcPduThroughputDl:mean -nan
scalar SingleCell_D2D.ueD2DTx[1].cellularNic.rlc.am rlcPduDelayUl:mean -nan
scalar SingleCell_D2D.ueD2DTx[1].cellularNic.rlc.am rlcPduDelayDl:mean -nan
scalar SingleCell_D2D.ueD2DTx[1].cellularNic.rlc.am rlcThroughputUl:mean -nan
scalar SingleCell_D2D.ueD2DTx[1].cellularNic.rlc.am rlcThroughputDl:mean -nan
scalar SingleCell_D2D.ueD2DTx[1].cellularNic.rlc.am rlcDelayUl:mean -nan
scalar SingleCell_D2D.ueD2DTx[1].cellularNic.rlc.am rlcDelayDl:mean -nan
scalar SingleCell_D2D.ueD2DTx[1].cellularNic.rlc.am rlcPduPacketLossUl:mean -nan
scalar SingleCell_D2D.ueD2DTx[1].cellularNic.rlc.am rlcPduPacketLossDl:mean -nan
scalar SingleCell_D2D.ueD2DTx[1].cellularNic.rlc.am rlcPacketLossUl:mean -nan
scalar SingleCell_D2D.ueD2DTx[1].cellularNic.rlc.am rlcPacketLossDl:mean -nan
scalar SingleCell_D2D.ueD2DTx[1].cellularNic.rlc.am rlcCellPacketLossUl:mean -nan
scalar SingleCell_D2D.ueD2DTx[1].cellularNic.rlc.am rlcCellPacketLossDl:mean -nan
scalar SingleCell_D2D.ueD2DTx[1].cellularNic.mac harqErrorRate_4th_D2D:mean -nan
scalar SingleCell_D2D.ueD2DTx[1].cellularNic.mac harqErrorRate_3rd_D2D:mean -nan
scalar SingleCell_D2D.ueD2DTx[1].cellularNic.mac harqErrorRate_2nd_D2D:mean -nan
scalar SingleCell_D2D.ueD2DTx[1].cellularNic.mac harqErrorRate_1st_D2D:mean -nan
scalar SingleCell_D2D.ueD2DTx[1].cellularNic.mac harqErrorRateD2D:mean -nan
scalar SingleCell_D2D.ueD2DTx[1].cellularNic.mac macPacketLossD2D:mean -nan
scalar SingleCell_D2D.ueD2DTx[1].cellularNic.mac macDelayD2D:mean -nan
scalar SingleCell_D2D.ueD2DTx[1].cellularNic.mac macThroughputD2D:mean -nan
scalar SingleCell_D2D.ueD2DTx[1].cellularNic.mac harqTxAttemptsUl:mean 1
scalar SingleCell_D2D.ueD2DTx[1].cellularNic.mac harqTxAttemptsDl:mean -nan
scalar SingleCell_D2D.ueD2DTx[1].cellularNic.mac harqErrorRate_4th_Ul:mean -nan
scalar SingleCell_D2D.ueD2DTx[1].cellularNic.mac harqErrorRate_4th_Dl:mean -nan
scalar SingleCell_D2D.ueD2DTx[1].cellularNic.mac harqErrorRate_3rd_Ul:mean -nan
scalar SingleCell_D2D.ueD2DTx[1].cellularNic.mac harqErrorRate_3rd_Dl:mean -nan
scalar SingleCell_D2D.ueD2DTx[1].cellularNic.mac harqErrorRate_2nd_Ul:mean -nan
scalar SingleCell_D2D.ueD2DTx[1].cellularNic.mac harqErrorRate_2nd_Dl:mean -nan
scalar SingleCell_D2D.ueD2DTx[1].cellularNic.mac harqErrorRate_1st_Ul:mean 0
scalar SingleCell_D2D.ueD2DTx[1].cellularNic.mac harqErrorRate_1st_Dl:mean -nan
scalar SingleCell_D2D.ueD2DTx[1].cellularNic.mac harqErrorRateUl:mean 0
scalar SingleCell_D2D.ueD2DTx[1].cellularNic.mac harqErrorRateDl:mean -nan
scalar SingleCell_D2D.ueD2DTx[1].cellularNic.mac macCellPacketLossUl:mean -nan
scalar SingleCell_D2D.ueD2DTx[1].cellularNic.mac macCellPacketLossDl:mean -nan
scalar SingleCell_D2D.ueD2DTx[1].cellularNic.mac macPacketLossUl:mean 0
scalar SingleCell_D2D.ueD2DTx[1].cellularNic.mac macPacketLossDl:mean -nan
scalar SingleCell_D2D.ueD2DTx[1].cellularNic.mac macThroughputUl:mean 112.84281142572286
scalar SingleCell_D2D.ueD2DTx[1].cellularNic.mac macThroughputDl:mean -nan
scalar SingleCell_D2D.ueD2DTx[1].cellularNic.mac macDelayUl:mean 0.0040000000000000027
scalar SingleCell_D2D.ueD2DTx[1].cellularNic.mac macDelayDl:mean -nan
scalar SingleCell_D2D.ueD2DTx[1].cellularNic.mac macCellThroughputUl:mean -nan
scalar SingleCell_D2D.ueD2DTx[1].cellularNic.mac macCellThroughputDl:mean -nan
scalar SingleCell_D2D.ueD2DTx[1].cellularNic.mac rcvdD2DModeSwitchNotification:count 0
scalar SingleCell_D2D.ueD2DTx[1].cellularNic.mac sentPacketToLowerLayer:count 832
scalar SingleCell_D2D.ueD2DTx[1].cellularNic.mac sentPacketToLowerLayer:sum(packetBytes) 13188
scalar SingleCell_D2D.ueD2DTx[1].cellularNic.mac sentPacketToUpperLayer:count 166
scalar SingleCell_D2D.ueD2DTx[1].cellularNic.mac sentPacketToUpperLayer:sum(packetBytes) 166
scalar SingleCell_D2D.ueD2DTx[1].cellularNic.mac receivedPacketFromLowerLayer:count 1498
scalar SingleCell_D2D.ueD2DTx[1].cellularNic.mac receivedPacketFromLowerLayer:sum(packetBytes) 1498
scalar SingleCell_D2D.ueD2DTx[1].cellularNic.mac receivedPacketFromUpperLayer:count 333
scalar SingleCell_D2D.ueD2DTx[1].cellularNic.mac receivedPacketFromUpperLayer:sum(packetBytes) 23643
scalar SingleCell_D2D.ueD2DTx[1].cellularNic.mac macBufferOverFlowD2D:mean -nan
scalar SingleCell_D2D.ueD2DTx[1].cellularNic.mac macBufferOverFlowUl:mean -nan
scalar SingleCell_D2D.ueD2DTx[1].cellularNic.mac macBufferOverFlowDl:mean -nan
scalar SingleCell_D2D.ueD2DTx[1].cellularNic.phy distance:mean -nan
scalar SingleCell_D2D.ueD2DTx[1].cellularNic.phy averageCqiD2D:mean 14.377245508982035
scalar SingleCell_D2D.ueD2DTx[1].cellularNic.phy averageCqiUl:mean 15
scalar SingleCell_D2D.ueD2DTx[1].cellularNic.phy averageCqiUl:count 332
scalar SingleCell_D2D.ueD2DTx[1].cellularNic.phy averageCqiDl:mean -nan
scalar SingleCell_D2D.ueD2DTx[1].cellularNic.phy averageCqiDl:count 0
scalar SingleCell_D2D.ueD2DTx[1].cellularNic.channelModel[0] measuredSinrUl:mean 63.144616408448343
scalar SingleCell_D2D.ueD2DTx[1].cellularNic.channelModel[0] measuredSinrDl:mean 66.504644395528871
scalar SingleCell_D2D.ueD2DTx[1].cellularNic.channelModel[0] rcvdSinrD2D:mean -nan
scalar SingleCell_D2D.ueD2DTx[1].cellularNic.channelModel[0] rcvdSinrUl:mean 54.677913529270342
scalar SingleCell_D2D.ueD2DTx[1].cellularNic.channelModel[0] rcvdSinrDl:mean -nan
scalar SingleCell_D2D.ueD2DTx[1].cellularNic packetDropInterfaceDown:count 0
scalar SingleCell_D2D.ueD2DTx[1].cellularNic packetDropInterfaceDown:sum(packetBytes) 0
scalar SingleCell_D2D.ueD2DTx[1].cellularNic packetDropNoCarrier:count 0
scalar SingleCell_D2D.ueD2DTx[1].cellularNic packetDropNoCarrier:sum(packetBytes) 0
scalar SingleCell_D2D.ueD2DTx[1].encap pauseSent:count 0
scalar SingleCell_D2D.ueD2DTx[1].encap pauseSent:sum 0
scalar SingleCell_D2D.ueD2DTx[1].encap decapPk:count 0
scalar SingleCell_D2D.ueD2DTx[1].encap decapPk:sum(packetBytes) 0
scalar SingleCell_D2D.ueD2DTx[1].encap encapPk:count 0
scalar SingleCell_D2D.ueD2DTx[1].encap encapPk:sum(packetBytes) 0
scalar SingleCell_D2D.ueD2DTx[1].ipv4.ip packetDropAddressResolutionFailed:count 0
scalar SingleCell_D2D.ueD2DTx[1].ipv4.ip packetDropAddressResolutionFailed:sum(packetBytes) 0
scalar SingleCell_D2D.ueD2DTx[1].ipv4.ip packetDropHopLimitReached:count 0
scalar SingleCell_D2D.ueD2DTx[1].ipv4.ip packetDropHopLimitReached:sum(packetBytes) 0
scalar SingleCell_D2D.ueD2DTx[1].ipv4.ip packetDropForwardingDisabled:count 0
scalar SingleCell_D2D.ueD2DTx[1].ipv4.ip packetDropForwardingDisabled:sum(packetBytes) 0
scalar SingleCell_D2D.ueD2DTx[1].ipv4.ip packetDropNoInterfaceFound:count 0
scalar SingleCell_D2D.ueD2DTx[1].ipv4.ip packetDropNoInterfaceFound:sum(packetBytes) 0
scalar SingleCell_D2D.ueD2DTx[1].ipv4.ip packetDropNoRouteFound:count 0
scalar SingleCell_D2D.ueD2DTx[1].ipv4.ip packetDropNoRouteFound:sum(packetBytes) 0
scalar SingleCell_D2D.ueD2DTx[1].ipv4.ip packetDropUndefined:count 0
scalar SingleCell_D2D.ueD2DTx[1].ipv4.ip packetDropUndefined:sum(packetBytes) 0
scalar SingleCell_D2D.ueD2DTx[1].ipv4.arp arpResolutionFailed:count 0
scalar SingleCell_D2D.ueD2DTx[1].ipv4.arp arpResolutionCompleted:count 0
scalar SingleCell_D2D.ueD2DTx[1].ipv4.arp arpResolutionInitiated:count 0
scalar SingleCell_D2D.ueD2DTx[1].ipv4.arp arpReplySent:count 0
scalar SingleCell_D2D.ueD2DTx[1].ipv4.arp arpReplySent:sum(packetBytes) 0
scalar SingleCell_D2D.ueD2DTx[1].ipv4.arp arpRequestSent:count 0
scalar SingleCell_D2D.ueD2DTx[1].ipv4.arp arpRequestSent:sum(packetBytes) 0
scalar SingleCell_D2D.ueD2DTx[1].udp packetReceived:count 0
scalar SingleCell_D2D.ueD2DTx[1].udp packetReceived:sum(packetBytes) 0
scalar SingleCell_D2D.ueD2DTx[1].udp packetSent:count 167
scalar SingleCell_D2D.ueD2DTx[1].udp packetSent:sum(packetBytes) 8016
scalar SingleCell_D2D.ueD2DTx[1].udp passedUpPk:count 0
scalar SingleCell_D2D.ueD2DTx[1].udp droppedPkWrongPort:count 0
scalar SingleCell_D2D.ueD2DTx[1].udp droppedPkBadChecksum:count 0
scalar SingleCell_D2D.ueD2DTx[1].app[0] voIPGeneratedThroughput:mean 1172.2851776265968
scalar SingleCell_D2D.ueD2DTx[2].lo[0].lo rcvdPkFromHl:count 0
scalar SingleCell_D2D.ueD2DTx[2].lo[0].lo rcvdPkFromHl:sum(packetBytes) 0
scalar SingleCell_D2D.ueD2DTx[2].lo[0].lo passedUpPk:count 0
scalar SingleCell_D2D.ueD2DTx[2].lo[0].lo passedUpPk:sum(packetBytes) 0
scalar SingleCell_D2D.ueD2DTx[2].lo[0] packetDropInterfaceDown:count 0
scalar SingleCell_D2D.ueD2DTx[2].lo[0] packetDropInterfaceDown:sum(packetBytes) 0
scalar SingleCell_D2D.ueD2DTx[2].lo[0] packetDropNoCarrier:count 0
scalar SingleCell_D2D.ueD2DTx[2].lo[0] packetDropNoCarrier:sum(packetBytes) 0
scalar SingleCell_D2D.ueD2DTx[2].cellularNic.pdcp sentPacketToLowerLayer:count 155
scalar SingleCell_D2D.ueD2DTx[2].cellularNic.pdcp sentPacketToLowerLayer:sum(packetBytes) 10695
scalar SingleCell_D2D.ueD2DTx[2].cellularNic.pdcp sentPacketToUpperLayer:count 0
scalar SingleCell_D2D.ueD2DTx[2].cellularNic.pdcp sentPacketToUpperLayer:sum(packetBytes) 0
scalar SingleCell_D2D.ueD2DTx[2].cellularNic.pdcp receivedPacketFromLowerLayer:count 0
scalar SingleCell_D2D.ueD2DTx[2].cellularNic.pdcp receivedPacketFromLowerLayer:sum(packetBytes) 0
scalar SingleCell_D2D.ueD2DTx[2].cellularNic.pdcp receivedPacketFromUpperLayer:count 155
scalar SingleCell_D2D.ueD2DTx[2].cellularNic.pdcp receivedPacketFromUpperLayer:sum(packetBytes) 10540
scalar SingleCell_D2D.ueD2DTx[2].cellularNic.rlc.tm rlcPacketLossUl:mean -nan
scalar SingleCell_D2D.ueD2DTx[2].cellularNic.rlc.tm rlcPacketLossUl:sum 0
scalar SingleCell_D2D.ueD2DTx[2].cellularNic.rlc.tm rlcPacketLossDl:mean -nan
scalar SingleCell_D2D.ueD2DTx[2].cellularNic.rlc.tm rlcPacketLossDl:sum 0
scalar SingleCell_D2D.ueD2DTx[2].cellularNic.rlc.tm sentPacketToLowerLayer:count 0
scalar SingleCell_D2D.ueD2DTx[2].cellularNic.rlc.tm sentPacketToLowerLayer:sum(packetBytes) 0
scalar SingleCell_D2D.ueD2DTx[2].cellularNic.rlc.tm sentPacketToUpperLayer:count 0
scalar SingleCell_D2D.ueD2DTx[2].cellularNic.rlc.tm sentPacketToUpperLayer:sum(packetBytes) 0
scalar SingleCell_D2D.ueD2DTx[2].cellularNic.rlc.tm receivedPacketFromLowerLayer:count 0
scalar SingleCell_D2D.ueD2DTx[2].cellularNic.rlc.tm receivedPacketFromLowerLayer:sum(packetBytes) 0
scalar SingleCell_D2D.ueD2DTx[2].cellularNic.rlc.tm receivedPacketFromUpperLayer:count 0
scalar SingleCell_D2D.ueD2DTx[2].cellularNic.rlc.tm receivedPacketFromUpperLayer:sum(packetBytes) 0
scalar SingleCell_D2D.ueD2DTx[2].cellularNic.rlc.um rlcCellThroughputD2D:mean -nan
scalar SingleCell_D2D.ueD2DTx[2].cellularNic.rlc.um rlcCellPacketLossD2D:mean -nan
scalar SingleCell_D2D.ueD2DTx[2].cellularNic.rlc.um rlcPduThroughputD2D:mean -nan
scalar SingleCell_D2D.ueD2DTx[2].cellularNic.rlc.um rlcPduDelayD2D:mean -nan
scalar SingleCell_D2D.ueD2DTx[2].cellularNic.rlc.um rlcThroughputD2D:mean -nan
scalar SingleCell_D2D.ueD2DTx[2].cellularNic.rlc.um rlcDelayD2D:mean -nan
scalar SingleCell_D2D.ueD2DTx[2].cellularNic.rlc.um rlcPduPacketLossD2D:mean -nan
scalar SingleCell_D2D.ueD2DTx[2].cellularNic.rlc.um rlcPacketLossD2D:mean -nan
scalar SingleCell_D2D.ueD2DTx[2].cellularNic.rlc.um rlcPacketLossTotal:mean -nan
scalar SingleCell_D2D.ueD2DTx[2].cellularNic.rlc.um rlcCellThroughputUl:mean -nan
scalar SingleCell_D2D.ueD2DTx[2].cellularNic.rlc.um rlcCellThroughputDl:mean -nan
scalar SingleCell_D2D.ueD2DTx[2].cellularNic.rlc.um rlcPduThroughputUl:mean -nan
scalar SingleCell_D2D.ueD2DTx[2].cellularNic.rlc.um rlcPduThroughputDl:mean -nan
scalar SingleCell_D2D.ueD2DTx[2].cellularNic.rlc.um rlcPduDelayUl:mean -nan
scalar SingleCell_D2D.ueD2DTx[2].cellularNic.rlc.um rlcPduDelayDl:mean -nan
scalar SingleCell_D2D.ueD2DTx[2].cellularNic.rlc.um rlcThroughputUl:mean -nan
scalar SingleCell_D2D.ueD2DTx[2].cellularNic.rlc.um rlcThroughputDl:mean -nan
scalar SingleCell_D2D.ueD2DTx[2].cellularNic.rlc.um rlcDelayUl:mean -nan
scalar SingleCell_D2D.ueD2DTx[2].cellularNic.rlc.um rlcDelayDl:mean -nan
scalar SingleCell_D2D.ueD2DTx[2].cellularNic.rlc.um rlcPduPacketLossUl:mean -nan
scalar SingleCell_D2D.ueD2DTx[2].cellularNic.rlc.um rlcPduPacketLossDl:mean -nan
scalar SingleCell_D2D.ueD2DTx[2].cellularNic.rlc.um rlcPacketLossUl:mean -nan
scalar SingleCell_D2D.ueD2DTx[2].cellularNic.rlc.um rlcPacketLossUl:sum 0
scalar SingleCell_D2D.ueD2DTx[2].cellularNic.rlc.um rlcPacketLossDl:mean -nan
scalar SingleCell_D2D.ueD2DTx[2].cellularNic.rlc.um rlcPacketLossDl:sum 0
scalar SingleCell_D2D.ueD2DTx[2].cellularNic.rlc.um rlcCellPacketLossUl:mean -nan
scalar SingleCell_D2D.ueD2DTx[2].cellularNic.rlc.um rlcCellPacketLossDl:mean -nan
scalar SingleCell_D2D.ueD2DTx[2].cellularNic.rlc.um sentPacketToLowerLayer:count 154
scalar SingleCell_D2D.ueD2DTx[2].cellularNic.rlc.um sentPacketToLowerLayer:sum(packetBytes) 10934
scalar SingleCell_D2D.ueD2DTx[2].cellularNic.rlc.um sentPacketToUpperLayer:count 0
scalar SingleCell_D2D.ueD2DTx[2].cellularNic.rlc.um sentPacketToUpperLayer:sum(packetBytes) 0
scalar SingleCell_D2D.ueD2DTx[2].cellularNic.rlc.um receivedPacketFromLowerLayer:count 0
scalar SingleCell_D2D.ueD2DTx[2].cellularNic.rlc.um receivedPacketFromLowerLayer:sum(packetBytes) 0
scalar SingleCell_D2D.ueD2DTx[2].cellularNic.rlc.um receivedPacketFromUpperLayer:count 155
scalar SingleCell_D2D.ueD2DTx[2].cellularNic.rlc.um receivedPacketFromUpperLayer:sum(packetBytes) 10695
scalar SingleCell_D2D.ueD2DTx[2].cellularNic.rlc.am rlcPacketLossTotal:mean -nan
scalar SingleCell_D2D.ueD2DTx[2].cellularNic.rlc.am rlcCellThroughputUl:mean -nan
scalar SingleCell_D2D.ueD2DTx[2].cellularNic.rlc.am rlcCellThroughputDl:mean -nan
scalar SingleCell_D2D.ueD2DTx[2].cellularNic.rlc.am rlcPduThroughputUl:mean -nan
scalar SingleCell_D2D.ueD2DTx[2].cellularNic.rlc.am rlcPduThroughputDl:mean -nan
scalar SingleCell_D2D.ueD2DTx[2].cellularNic.rlc.am rlcPduDelayUl:mean -nan
scalar SingleCell_D2D.ueD2DTx[2].cellularNic.rlc.am rlcPduDelayDl:mean -nan
scalar SingleCell_D2D.ueD2DTx[2].cellularNic.rlc.am rlcThroughputUl:mean -nan
scalar SingleCell_D2D.ueD2DTx[2].cellularNic.rlc.am rlcThroughputDl:mean -nan
scalar SingleCell_D2D.ueD2DTx[2].cellularNic.rlc.am rlcDelayUl:mean -nan
scalar SingleCell_D2D.ueD2DTx[2].cellularNic.rlc.am rlcDelayDl:mean -nan
scalar SingleCell_D2D.ueD2DTx[2].cellularNic.rlc.am rlcPduPacketLossUl:mean -nan
scalar SingleCell_D2D.ueD2DTx[2].cellularNic.rlc.am rlcPduPacketLossDl:mean -nan
scalar SingleCell_D2D.ueD2DTx[2].cellularNic.rlc.am rlcPacketLossUl:mean -nan
scalar SingleCell_D2D.ueD2DTx[2].cellularNic.rlc.am rlcPacketLossDl:mean -nan
scalar SingleCell_D2D.ueD2DTx[2].cellularNic.rlc.am rlcCellPacketLossUl:mean -nan
scalar SingleCell_D2D.ueD2DTx[2].cellularNic.rlc.am rlcCellPacketLossDl:mean -nan
scalar SingleCell_D2D.ueD2DTx[2].cellularNic.mac harqErrorRate_4th_D2D:mean -nan
scalar SingleCell_D2D.ueD2DTx[2].cellularNic.mac harqErrorRate_3rd_D2D:mean -nan
scalar SingleCell_D2D.ueD2DTx[2].cellularNic.mac harqErrorRate_2nd_D2D:mean -nan
scalar SingleCell_D2D.ueD2DTx[2].cellularNic.mac harqErrorRate_1st_D2D:mean -nan
scalar SingleCell_D2D.ueD2DTx[2].cellularNic.mac harqErrorRateD2D:mean -nan
scalar SingleCell_D2D.ueD2DTx[2].cellularNic.mac macPacketLossD2D:mean -nan
scalar SingleCell_D2D.ueD2DTx[2].cellularNic.mac macDelayD2D:mean -nan
scalar SingleCell_D2D.ueD2DTx[2].cellularNic.mac macThroughputD2D:mean -nan
scalar SingleCell_D2D.ueD2DTx[2].cellularNic.mac harqTxAttemptsUl:mean 1
scalar SingleCell_D2D.ueD2DTx[2].cellularNic.mac harqTxAttemptsDl:mean -nan
scalar SingleCell_D2D.ueD2DTx[2].cellularNic.mac harqErrorRate_4th_Ul:mean -nan
scalar SingleCell_D2D.ueD2DTx[2].cellularNic.mac harqErrorRate_4th_Dl:mean -nan
scalar SingleCell_D2D.ueD2DTx[2].cellularNic.mac harqErrorRate_3rd_Ul:mean -nan
scalar SingleCell_D2D.ueD2DTx[2].cellularNic.mac harqErrorRate_3rd_Dl:mean -nan
scalar SingleCell_D2D.ueD2DTx[2].cellularNic.mac harqErrorRate_2nd_Ul:mean -nan
scalar SingleCell_D2D.ueD2DTx[2].cellularNic.mac harqErrorRate_2nd_Dl:mean -nan
scalar SingleCell_D2D.ueD2DTx[2].cellularNic.mac harqErrorRate_1st_Ul:mean 0
scalar SingleCell_D2D.ueD2DTx[2].cellularNic.mac harqErrorRate_1st_Dl:mean -nan
scalar SingleCell_D2D.ueD2DTx[2].cellularNic.mac harqErrorRateUl:mean 0
scalar SingleCell_D2D.ueD2DTx[2].cellularNic.mac harqErrorRateDl:mean -nan
scalar SingleCell_D2D.ueD2DTx[2].cellularNic.mac macCellPacketLossUl:mean -nan
scalar SingleCell_D2D.ueD2DTx[2].cellularNic.mac macCellPacketLossDl:mean -nan
scalar SingleCell_D2D.ueD2DTx[2].cellularNic.mac macPacketLossUl:mean 0
scalar SingleCell_D2D.ueD2DTx[2].cellularNic.mac macPacketLossDl:mean -nan
scalar SingleCell_D2D.ueD2DTx[2].cellularNic.mac macThroughputUl:mean 175.60005094786629
scalar SingleCell_D2D.ueD2DTx[2].cellularNic.mac macThroughputDl:mean -nan
scalar SingleCell_D2D.ueD2DTx[2].cellularNic.mac macDelayUl:mean 0.0040000000000000027
scalar SingleCell_D2D.ueD2DTx[2].cellularNic.mac macDelayDl:mean -nan
scalar SingleCell_D2D.ueD2DTx[2].cellularNic.mac macCellThroughputUl:mean -nan
scalar SingleCell_D2D.ueD2DTx[2].cellularNic.mac macCellThroughputDl:mean -nan
scalar SingleCell_D2D.ueD2DTx[2].cellularNic.mac rcvdD2DModeSwitchNotification:count 0
scalar SingleCell_D2D.ueD2DTx[2].cellularNic.mac sentPacketToLowerLayer:count 772
scalar SingleCell_D2D.ueD2DTx[2].cellularNic.mac sentPacketToLowerLayer:sum(packetBytes) 12240
scalar SingleCell_D2D.ueD2DTx[2].cellularNic.mac sentPacketToUpperLayer:count 154
scalar SingleCell_D2D.ueD2DTx[2].cellularNic.mac sentPacketToUpperLayer:sum(packetBytes) 154
scalar SingleCell_D2D.ueD2DTx[2].cellularNic.mac receivedPacketFromLowerLayer:count 1388
scalar SingleCell_D2D.ueD2DTx[2].cellularNic.mac receivedPacketFromLowerLayer:sum(packetBytes) 1388
scalar SingleCell_D2D.ueD2DTx[2].cellularNic.mac receivedPacketFromUpperLayer:count 309
scalar SingleCell_D2D.ueD2DTx[2].cellularNic.mac receivedPacketFromUpperLayer:sum(packetBytes) 21939
scalar SingleCell_D2D.ueD2DTx[2].cellularNic.mac macBufferOverFlowD2D:mean -nan
scalar SingleCell_D2D.ueD2DTx[2].cellularNic.mac macBufferOverFlowUl:mean -nan
scalar SingleCell_D2D.ueD2DTx[2].cellularNic.mac macBufferOverFlowDl:mean -nan
scalar SingleCell_D2D.ueD2DTx[2].cellularNic.phy distance:mean -nan
scalar SingleCell_D2D.ueD2DTx[2].cellularNic.phy averageCqiD2D:mean 12.316129032258065
scalar SingleCell_D2D.ueD2DTx[2].cellularNic.phy averageCqiUl:mean 15
scalar SingleCell_D2D.ueD2DTx[2].cellularNic.phy averageCqiUl:count 308
scalar SingleCell_D2D.ueD2DTx[2].cellularNic.phy averageCqiDl:mean -nan
scalar SingleCell_D2D.ueD2DTx[2].cellularNic.phy averageCqiDl:count 0
scalar SingleCell_D2D.ueD2DTx[2].cellularNic.channelModel[0] measuredSinrUl:mean 51.414904221329337
scalar SingleCell_D2D.ueD2DTx[2].cellularNic.channelModel[0] measuredSinrDl:mean 77.105125015493883
scalar SingleCell_D2D.ueD2DTx[2].cellularNic.channelModel[0] rcvdSinrD2D:mean -nan
scalar SingleCell_D2D.ueD2DTx[2].cellularNic.channelModel[0] rcvdSinrUl:mean 51.410919467796425
scalar SingleCell_D2D.ueD2DTx[2].cellularNic.channelModel[0] rcvdSinrDl:mean -nan
scalar SingleCell_D2D.ueD2DTx[2].cellularNic packetDropInterfaceDown:count 0
scalar SingleCell_D2D.ueD2DTx[2].cellularNic packetDropInterfaceDown:sum(packetBytes) 0
scalar SingleCell_D2D.ueD2DTx[2].cellularNic packetDropNoCarrier:count 0
scalar SingleCell_D2D.ueD2DTx[2].cellularNic packetDropNoCarrier:sum(packetBytes) 0
scalar SingleCell_D2D.ueD2DTx[2].encap pauseSent:count 0
scalar SingleCell_D2D.ueD2DTx[2].encap pauseSent:sum 0
scalar SingleCell_D2D.ueD2DTx[2].encap decapPk:count 0
scalar SingleCell_D2D.ueD2DTx[2].encap decapPk:sum(packetBytes) 0
scalar SingleCell_D2D.ueD2DTx[2].encap encapPk:count 0
scalar SingleCell_D2D.ueD2DTx[2].encap encapPk:sum(packetBytes) 0
scalar SingleCell_D2D.ueD2DTx[2].ipv4.ip packetDropAddressResolutionFailed:count 0
scalar SingleCell_D2D.ueD2DTx[2].ipv4.ip packetDropAddressResolutionFailed:sum(packetBytes) 0
scalar SingleCell_D2D.ueD2DTx[2].ipv4.ip packetDropHopLimitReached:count 0
scalar SingleCell_D2D.ueD2DTx[2].ipv4.ip packetDropHopLimitReached:sum(packetBytes) 0
scalar SingleCell_D2D.ueD2DTx[2].ipv4.ip packetDropForwardingDisabled:count 0
scalar SingleCell_D2D.ueD2DTx[2].ipv4.ip packetDropForwardingDisabled:sum(packetBytes) 0
scalar SingleCell_D2D.ueD2DTx[2].ipv4.ip packetDropNoInterfaceFound:count 0
scalar SingleCell_D2D.ueD2DTx[2].ipv4.ip packetDropNoInterfaceFound:sum(packetBytes) 0
scalar SingleCell_D2D.ueD2DTx[2].ipv4.ip packetDropNoRouteFound:count 0
scalar SingleCell_D2D.ueD2DTx[2].ipv4.ip packetDropNoRouteFound:sum(packetBytes) 0
scalar SingleCell_D2D.ueD2DTx[2].ipv4.ip packetDropUndefined:count 0
scalar SingleCell_D2D.ueD2DTx[2].ipv4.ip packetDropUndefined:sum(packetBytes) 0
scalar SingleCell_D2D.ueD2DTx[2].ipv4.arp arpResolutionFailed:count 0
scalar SingleCell_D2D.ueD2DTx[2].ipv4.arp arpResolutionCompleted:count 0
scalar SingleCell_D2D.ueD2DTx[2].ipv4.arp arpResolutionInitiated:count 0
scalar SingleCell_D2D.ueD2DTx[2].ipv4.arp arpReplySent:count 0
scalar SingleCell_D2D.ueD2DTx[2].ipv4.arp arpReplySent:sum(packetBytes) 0
scalar SingleCell_D2D.ueD2DTx[2].ipv4.arp arpRequestSent:count 0
scalar SingleCell_D2D.ueD2DTx[2].ipv4.arp arpRequestSent:sum(packetBytes) 0
scalar SingleCell_D2D.ueD2DTx[2].udp packetReceived:count 0
scalar SingleCell_D2D.ueD2DTx[2].udp packetReceived:sum(packetBytes) 0
scalar SingleCell_D2D.ueD2DTx[2].udp packetSent:count 155
scalar SingleCell_D2D.ueD2DTx[2].udp packetSent:sum(packetBytes) 7440
scalar SingleCell_D2D.ueD2DTx[2].udp passedUpPk:count 0
scalar SingleCell_D2D.ueD2DTx[2].udp droppedPkWrongPort:count 0
scalar SingleCell_D2D.ueD2DTx[2].udp droppedPkBadChecksum:count 0
scalar SingleCell_D2D.ueD2DTx[2].app[0] voIPGeneratedThroughput:mean 1813.4829652378282
scalar SingleCell_D2D.ueD2DTx[3].lo[0].lo rcvdPkFromHl:count 0
scalar SingleCell_D2D.ueD2DTx[3].lo[0].lo rcvdPkFromHl:sum(packetBytes) 0
scalar SingleCell_D2D.ueD2DTx[3].lo[0].lo passedUpPk:count 0
scalar SingleCell_D2D.ueD2DTx[3].lo[0].lo passedUpPk:sum(packetBytes) 0
scalar SingleCell_D2D.ueD2DTx[3].lo[0] packetDropInterfaceDown:count 0
scalar SingleCell_D2D.ueD2DTx[3].lo[0] packetDropInterfaceDown:sum(packetBytes) 0
scalar SingleCell_D2D.ueD2DTx[3].lo[0] packetDropNoCarrier:count 0
scalar SingleCell_D2D.ueD2DTx[3].lo[0] packetDropNoCarrier:sum(packetBytes) 0
scalar SingleCell_D2D.ueD2DTx[3].cellularNic.pdcp sentPacketToLowerLayer:count 163
scalar SingleCell_D2D.ueD2DTx[3].cellularNic.pdcp sentPacketToLowerLayer:sum(packetBytes) 11247
scalar SingleCell_D2D.ueD2DTx[3].cellularNic.pdcp sentPacketToUpperLayer:count 0
scalar SingleCell_D2D.ueD2DTx[3].cellularNic.pdcp sentPacketToUpperLayer:sum(packetBytes) 0
scalar SingleCell_D2D.ueD2DTx[3].cellularNic.pdcp receivedPacketFromLowerLayer:count 0
scalar SingleCell_D2D.ueD2DTx[3].cellularNic.pdcp receivedPacketFromLowerLayer:sum(packetBytes) 0
scalar SingleCell_D2D.ueD2DTx[3].cellularNic.pdcp receivedPacketFromUpperLayer:count 163
scalar SingleCell_D2D.ueD2DTx[3].cellularNic.pdcp receivedPacketFromUpperLayer:sum(packetBytes) 11084
scalar SingleCell_D2D.ueD2DTx[3].cellularNic.rlc.tm rlcPacketLossUl:mean -nan
scalar SingleCell_D2D.ueD2DTx[3].cellularNic.rlc.tm rlcPacketLossUl:sum 0
scalar SingleCell_D2D.ueD2DTx[3].cellularNic.rlc.tm rlcPacketLossDl:mean -nan
scalar SingleCell_D2D.ueD2DTx[3].cellularNic.rlc.tm rlcPacketLossDl:sum 0
scalar SingleCell_D2D.ueD2DTx[3].cellularNic.rlc.tm sentPacketToLowerLayer:count 0
scalar SingleCell_D2D.ueD2DTx[3].cellularNic.rlc.tm sentPacketToLowerLayer:sum(packetBytes) 0
scalar SingleCell_D2D.ueD2DTx[3].cellularNic.rlc.tm sentPacketToUpperLayer:count 0
scalar SingleCell_D2D.ueD2DTx[3].cellularNic.rlc.tm sentPacketToUpperLayer:sum(packetBytes) 0
scalar SingleCell_D2D.ueD2DTx[3].cellularNic.rlc.tm receivedPacketFromLowerLayer:count 0
scalar SingleCell_D2D.ueD2DTx[3].cellularNic.rlc.tm receivedPacketFromLowerLayer:sum(packetBytes) 0
scalar SingleCell_D2D.ueD2DTx[3].cellularNic.rlc.tm receivedPacketFromUpperLayer:count 0
scalar SingleCell_D2D.ueD2DTx[3].cellularNic.rlc.tm receivedPacketFromUpperLayer:sum(packetBytes) 0
scalar SingleCell_D2D.ueD2DTx[3].cellularNic.rlc.um rlcCellThroughputD2D:mean -nan
scalar SingleCell_D2D.ueD2DTx[3].cellularNic.rlc.um rlcCellPacketLossD2D:mean -nan
scalar SingleCell_D2D.ueD2DTx[3].cellularNic.rlc.um rlcPduThroughputD2D:mean -nan
scalar SingleCell_D2D.ueD2DTx[3].cellularNic.rlc.um rlcPduDelayD2D:mean -nan
scalar SingleCell_D2D.ueD2DTx[3].cellularNic.rlc.um rlcThroughputD2D:mean -nan
scalar SingleCell_D2D.ueD2DTx[3].cellularNic.rlc.um rlcDelayD2D:mean -nan
scalar SingleCell_D2D.ueD2DTx[3].cellularNic.rlc.um rlcPduPacketLossD2D:mean -nan
scalar SingleCell_D2D.ueD2DTx[3].cellularNic.rlc.um rlcPacketLossD2D:mean -nan
scalar SingleCell_D2D.ueD2DTx[3].cellularNic.rlc.um rlcPacketLossTotal:mean -nan
scalar SingleCell_D2D.ueD2DTx[3].cellularNic.rlc.um rlcCellThroughputUl:mean -nan
scalar SingleCell_D2D.ueD2DTx[3].cellularNic.rlc.um rlcCellThroughputDl:mean -nan
scalar SingleCell_D2D.ueD2DTx[3].cellularNic.rlc.um rlcPduThroughputUl:mean -nan
scalar SingleCell_D2D.ueD2DTx[3].cellularNic.rlc.um rlcPduThroughputDl:mean -nan
scalar SingleCell_D2D.ueD2DTx[3].cellularNic.rlc.um rlcPduDelayUl:mean -nan
scalar SingleCell_D2D.ueD2DTx[3].cellularNic.rlc.um rlcPduDelayDl:mean -nan
scalar SingleCell_D2D.ueD2DTx[3].cellularNic.rlc.um rlcThroughputUl:mean -nan
scalar SingleCell_D2D.ueD2DTx[3].cellularNic.rlc.um rlcThroughputDl:mean -nan
scalar SingleCell_D2D.ueD2DTx[3].cellularNic.rlc.um rlcDelayUl:mean -nan
scalar SingleCell_D2D.ueD2DTx[3].cellularNic.rlc.um rlcDelayDl:mean -nan
scalar SingleCell_D2D.ueD2DTx[3].cellularNic.rlc.um rlcPduPacketLossUl:mean -nan
scalar SingleCell_D2D.ueD2DTx[3].cellularNic.rlc.um rlcPduPacketLossDl:mean -nan
scalar SingleCell_D2D.ueD2DTx[3].cellularNic.rlc.um rlcPacketLossUl:mean -nan
scalar SingleCell_D2D.ueD2DTx[3].cellularNic.rlc.um rlcPacketLossUl:sum 0
scalar SingleCell_D2D.ueD2DTx[3].cellularNic.rlc.um rlcPacketLossDl:mean -nan
scalar SingleCell_D2D.ueD2DTx[3].cellularNic.rlc.um rlcPacketLossDl:sum 0
scalar SingleCell_D2D.ueD2DTx[3].cellularNic.rlc.um rlcCellPacketLossUl:mean -nan
scalar SingleCell_D2D.ueD2DTx[3].cellularNic.rlc.um rlcCellPacketLossDl:mean -nan
scalar SingleCell_D2D.ueD2DTx[3].cellularNic.rlc.um sentPacketToLowerLayer:count 162
scalar SingleCell_D2D.ueD2DTx[3].cellularNic.rlc.um sentPacketToLowerLayer:sum(packetBytes) 11502
scalar SingleCell_D2D.ueD2DTx[3].cellularNic.rlc.um sentPacketToUpperLayer:count 0
scalar SingleCell_D2D.ueD2DTx[3].cellularNic.rlc.um sentPacketToUpperLayer:sum(packetBytes) 0
scalar SingleCell_D2D.ueD2DTx[3].cellularNic.rlc.um receivedPacketFromLowerLayer:count 0
scalar SingleCell_D2D.ueD2DTx[3].cellularNic.rlc.um receivedPacketFromLowerLayer:sum(packetBytes) 0
scalar SingleCell_D2D.ueD2DTx[3].cellularNic.rlc.um receivedPacketFromUpperLayer:count 163
scalar SingleCell_D2D.ueD2DTx[3].cellularNic.rlc.um receivedPacketFromUpperLayer:sum(packetBytes) 11247
scalar SingleCell_D2D.ueD2DTx[3].cellularNic.rlc.am rlcPacketLossTotal:mean -nan
scalar SingleCell_D2D.ueD2DTx[3].cellularNic.rlc.am rlcCellThroughputUl:mean -nan
scalar SingleCell_D2D.ueD2DTx[3].cellularNic.rlc.am rlcCellThroughputDl:mean -nan
scalar SingleCell_D2D.ueD2DTx[3].cellularNic.rlc.am rlcPduThroughputUl:mean -nan
scalar SingleCell_D2D.ueD2DTx[3].cellularNic.rlc.am rlcPduThroughputDl:mean -nan
[...]
scalar SingleCell_D2D.ueD2DRx[4].cellularNic.phy averageCqiD2D:vector:endtime nan
scalar SingleCell_D2D.ueD2DRx[4].cellularNic.channelModel[0] rcvdSinrDl:vector:count 0
scalar SingleCell_D2D.ueD2DRx[4].cellularNic.channelModel[0] rcvdSinrDl:vector:sum 0
scalar SingleCell_D2D.ueD2DRx[4].cellularNic.channelModel[0] rcvdSinrDl:vector:sumweights 0
scalar SingleCell_D2D.ueD2DRx[4].cellularNic.channelModel[0] rcvdSinrDl:vector:mean -nan
scalar SingleCell_D2D.ueD2DRx[4].cellularNic.channelModel[0] rcvdSinrDl:vector:stddev nan
scalar SingleCell_D2D.ueD2DRx[4].cellularNic.channelModel[0] rcvdSinrDl:vector:min inf
scalar SingleCell_D2D.ueD2DRx[4].cellularNic.channelModel[0] rcvdSinrDl:vector:max -inf
scalar SingleCell_D2D.ueD2DRx[4].cellularNic.channelModel[0] rcvdSinrDl:vector:starttime nan
scalar SingleCell_D2D.ueD2DRx[4].cellularNic.channelModel[0] rcvdSinrDl:vector:endtime nan
scalar SingleCell_D2D.ueD2DRx[4].cellularNic.channelModel[0] rcvdSinrUl:vector:count 0
scalar SingleCell_D2D.ueD2DRx[4].cellularNic.channelModel[0] rcvdSinrUl:vector:sum 0
scalar SingleCell_D2D.ueD2DRx[4].cellularNic.channelModel[0] rcvdSinrUl:vector:sumweights 0
scalar SingleCell_D2D.ueD2DRx[4].cellularNic.channelModel[0] rcvdSinrUl:vector:mean -nan
scalar SingleCell_D2D.ueD2DRx[4].cellularNic.channelModel[0] rcvdSinrUl:vector:stddev nan
scalar SingleCell_D2D.ueD2DRx[4].cellularNic.channelModel[0] rcvdSinrUl:vector:min inf
scalar SingleCell_D2D.ueD2DRx[4].cellularNic.channelModel[0] rcvdSinrUl:vector:max -inf
scalar SingleCell_D2D.ueD2DRx[4].cellularNic.channelModel[0] rcvdSinrUl:vector:starttime nan
scalar SingleCell_D2D.ueD2DRx[4].cellularNic.channelModel[0] rcvdSinrUl:vector:endtime nan
scalar SingleCell_D2D.ueD2DRx[4].cellularNic.channelModel[0] rcvdSinrD2D:vector:count 0
scalar SingleCell_D2D.ueD2DRx[4].cellularNic.channelModel[0] rcvdSinrD2D:vector:sum 0
scalar SingleCell_D2D.ueD2DRx[4].cellularNic.channelModel[0] rcvdSinrD2D:vector:sumweights 0
scalar SingleCell_D2D.ueD2DRx[4].cellularNic.channelModel[0] rcvdSinrD2D:vector:mean -nan
scalar SingleCell_D2D.ueD2DRx[4].cellularNic.channelModel[0] rcvdSinrD2D:vector:stddev nan
scalar SingleCell_D2D.ueD2DRx[4].cellularNic.channelModel[0] rcvdSinrD2D:vector:min inf
scalar SingleCell_D2D.ueD2DRx[4].cellularNic.channelModel[0] rcvdSinrD2D:vector:max -inf
scalar SingleCell_D2D.ueD2DRx[4].cellularNic.channelModel[0] rcvdSinrD2D:vector:starttime nan
scalar SingleCell_D2D.ueD2DRx[4].cellularNic.channelModel[0] rcvdSinrD2D:vector:endtime nan
scalar SingleCell_D2D.ueD2DRx[4].cellularNic.channelModel[0] measuredSinrDl:vector:count 834
scalar SingleCell_D2D.ueD2DRx[4].cellularNic.channelModel[0] measuredSinrDl:vector:sum 59453.119523704365
scalar SingleCell_D2D.ueD2DRx[4].cellularNic.channelModel[0] measuredSinrDl:vector:sumweights 834
scalar SingleCell_D2D.ueD2DRx[4].cellularNic.channelModel[0] measuredSinrDl:vector:mean 71.286714057199475
scalar SingleCell_D2D.ueD2DRx[4].cellularNic.channelModel[0] measuredSinrDl:vector:stddev 0
scalar SingleCell_D2D.ueD2DRx[4].cellularNic.channelModel[0] measuredSinrDl:vector:min 71.286714057199873
scalar SingleCell_D2D.ueD2DRx[4].cellularNic.channelModel[0] measuredSinrDl:vector:max 71.286714057199873
scalar SingleCell_D2D.ueD2DRx[4].cellularNic.channelModel[0] measuredSinrDl:vector:starttime 0.002
scalar SingleCell_D2D.ueD2DRx[4].cellularNic.channelModel[0] measuredSinrDl:vector:endtime 5
scalar SingleCell_D2D.ueD2DRx[4].cellularNic.channelModel[0] measuredSinrUl:vector:count 834
scalar SingleCell_D2D.ueD2DRx[4].cellularNic.channelModel[0] measuredSinrUl:vector:sum 43686.448971697915
scalar SingleCell_D2D.ueD2DRx[4].cellularNic.channelModel[0] measuredSinrUl:vector:sumweights 834
scalar SingleCell_D2D.ueD2DRx[4].cellularNic.channelModel[0] measuredSinrUl:vector:mean 52.381833299397982
scalar SingleCell_D2D.ueD2DRx[4].cellularNic.channelModel[0] measuredSinrUl:vector:stddev 0
scalar SingleCell_D2D.ueD2DRx[4].cellularNic.channelModel[0] measuredSinrUl:vector:min 52.38183329939848
scalar SingleCell_D2D.ueD2DRx[4].cellularNic.channelModel[0] measuredSinrUl:vector:max 52.38183329939848
scalar SingleCell_D2D.ueD2DRx[4].cellularNic.channelModel[0] measuredSinrUl:vector:starttime 0.002
scalar SingleCell_D2D.ueD2DRx[4].cellularNic.channelModel[0] measuredSinrUl:vector:endtime 5
scalar SingleCell_D2D.ueD2DRx[4].cellularNic packetDropInterfaceDown:vector(packetBytes):count 0
scalar SingleCell_D2D.ueD2DRx[4].cellularNic packetDropInterfaceDown:vector(packetBytes):sum 0
scalar SingleCell_D2D.ueD2DRx[4].cellularNic packetDropInterfaceDown:vector(packetBytes):sumweights 0
scalar SingleCell_D2D.ueD2DRx[4].cellularNic packetDropInterfaceDown:vector(packetBytes):mean -nan
scalar SingleCell_D2D.ueD2DRx[4].cellularNic packetDropInterfaceDown:vector(packetBytes):stddev nan
scalar SingleCell_D2D.ueD2DRx[4].cellularNic packetDropInterfaceDown:vector(packetBytes):min inf
scalar SingleCell_D2D.ueD2DRx[4].cellularNic packetDropInterfaceDown:vector(packetBytes):max -inf
scalar SingleCell_D2D.ueD2DRx[4].cellularNic packetDropInterfaceDown:vector(packetBytes):starttime nan
scalar SingleCell_D2D.ueD2DRx[4].cellularNic packetDropInterfaceDown:vector(packetBytes):endtime nan
scalar SingleCell_D2D.ueD2DRx[4].cellularNic packetDropNoCarrier:vector(packetBytes):count 0
scalar SingleCell_D2D.ueD2DRx[4].cellularNic packetDropNoCarrier:vector(packetBytes):sum 0
scalar SingleCell_D2D.ueD2DRx[4].cellularNic packetDropNoCarrier:vector(packetBytes):sumweights 0
scalar SingleCell_D2D.ueD2DRx[4].cellularNic packetDropNoCarrier:vector(packetBytes):mean -nan
scalar SingleCell_D2D.ueD2DRx[4].cellularNic packetDropNoCarrier:vector(packetBytes):stddev nan
scalar SingleCell_D2D.ueD2DRx[4].cellularNic packetDropNoCarrier:vector(packetBytes):min inf
scalar SingleCell_D2D.ueD2DRx[4].cellularNic packetDropNoCarrier:vector(packetBytes):max -inf
scalar SingleCell_D2D.ueD2DRx[4].cellularNic packetDropNoCarrier:vector(packetBytes):starttime nan
scalar SingleCell_D2D.ueD2DRx[4].cellularNic packetDropNoCarrier:vector(packetBytes):endtime nan
scalar SingleCell_D2D.ueD2DRx[4].encap encapPk:vector(packetBytes):count 0
scalar SingleCell_D2D.ueD2DRx[4].encap encapPk:vector(packetBytes):sum 0
scalar SingleCell_D2D.ueD2DRx[4].encap encapPk:vector(packetBytes):sumweights 0
scalar SingleCell_D2D.ueD2DRx[4].encap encapPk:vector(packetBytes):mean -nan
scalar SingleCell_D2D.ueD2DRx[4].encap encapPk:vector(packetBytes):stddev nan
scalar SingleCell_D2D.ueD2DRx[4].encap encapPk:vector(packetBytes):min inf
scalar SingleCell_D2D.ueD2DRx[4].encap encapPk:vector(packetBytes):max -inf
scalar SingleCell_D2D.ueD2DRx[4].encap encapPk:vector(packetBytes):starttime nan
scalar SingleCell_D2D.ueD2DRx[4].encap encapPk:vector(packetBytes):endtime nan
scalar SingleCell_D2D.ueD2DRx[4].encap decapPk:vector(packetBytes):count 0
scalar SingleCell_D2D.ueD2DRx[4].encap decapPk:vector(packetBytes):sum 0
scalar SingleCell_D2D.ueD2DRx[4].encap decapPk:vector(packetBytes):sumweights 0
scalar SingleCell_D2D.ueD2DRx[4].encap decapPk:vector(packetBytes):mean -nan
scalar SingleCell_D2D.ueD2DRx[4].encap decapPk:vector(packetBytes):stddev nan
scalar SingleCell_D2D.ueD2DRx[4].encap decapPk:vector(packetBytes):min inf
scalar SingleCell_D2D.ueD2DRx[4].encap decapPk:vector(packetBytes):max -inf
scalar SingleCell_D2D.ueD2DRx[4].encap decapPk:vector(packetBytes):starttime nan
scalar SingleCell_D2D.ueD2DRx[4].encap decapPk:vector(packetBytes):endtime nan
scalar SingleCell_D2D.ueD2DRx[4].encap pauseSent:vector:count 0
scalar SingleCell_D2D.ueD2DRx[4].encap pauseSent:vector:sum 0
scalar SingleCell_D2D.ueD2DRx[4].encap pauseSent:vector:sumweights 0
scalar SingleCell_D2D.ueD2DRx[4].encap pauseSent:vector:mean -nan
scalar SingleCell_D2D.ueD2DRx[4].encap pauseSent:vector:stddev nan
scalar SingleCell_D2D.ueD2DRx[4].encap pauseSent:vector:min inf
scalar SingleCell_D2D.ueD2DRx[4].encap pauseSent:vector:max -inf
scalar SingleCell_D2D.ueD2DRx[4].encap pauseSent:vector:starttime nan
scalar SingleCell_D2D.ueD2DRx[4].encap pauseSent:vector:endtime nan
scalar SingleCell_D2D.ueD2DRx[4].ipv4.ip packetDropAddressResolutionFailed:vector(packetBytes):count 0
scalar SingleCell_D2D.ueD2DRx[4].ipv4.ip packetDropAddressResolutionFailed:vector(packetBytes):sum 0
scalar SingleCell_D2D.ueD2DRx[4].ipv4.ip packetDropAddressResolutionFailed:vector(packetBytes):sumweights 0
scalar SingleCell_D2D.ueD2DRx[4].ipv4.ip packetDropAddressResolutionFailed:vector(packetBytes):mean -nan
scalar SingleCell_D2D.ueD2DRx[4].ipv4.ip packetDropAddressResolutionFailed:vector(packetBytes):stddev nan
scalar SingleCell_D2D.ueD2DRx[4].ipv4.ip packetDropAddressResolutionFailed:vector(packetBytes):min inf
scalar SingleCell_D2D.ueD2DRx[4].ipv4.ip packetDropAddressResolutionFailed:vector(packetBytes):max -inf
scalar SingleCell_D2D.ueD2DRx[4].ipv4.ip packetDropAddressResolutionFailed:vector(packetBytes):starttime nan
scalar SingleCell_D2D.ueD2DRx[4].ipv4.ip packetDropAddressResolutionFailed:vector(packetBytes):endtime nan
scalar SingleCell_D2D.ueD2DRx[4].ipv4.ip packetDropHopLimitReached:vector(packetBytes):count 0
scalar SingleCell_D2D.ueD2DRx[4].ipv4.ip packetDropHopLimitReached:vector(packetBytes):sum 0
scalar SingleCell_D2D.ueD2DRx[4].ipv4.ip packetDropHopLimitReached:vector(packetBytes):sumweights 0
scalar SingleCell_D2D.ueD2DRx[4].ipv4.ip packetDropHopLimitReached:vector(packetBytes):mean -nan
scalar SingleCell_D2D.ueD2DRx[4].ipv4.ip packetDropHopLimitReached:vector(packetBytes):stddev nan
scalar SingleCell_D2D.ueD2DRx[4].ipv4.ip packetDropHopLimitReached:vector(packetBytes):min inf
scalar SingleCell_D2D.ueD2DRx[4].ipv4.ip packetDropHopLimitReached:vector(packetBytes):max -inf
scalar SingleCell_D2D.ueD2DRx[4].ipv4.ip packetDropHopLimitReached:vector(packetBytes):starttime nan
scalar SingleCell_D2D.ueD2DRx[4].ipv4.ip packetDropHopLimitReached:vector(packetBytes):endtime nan
scalar SingleCell_D2D.ueD2DRx[4].ipv4.ip packetDropForwardingDisabled:vector(packetBytes):count 0
scalar SingleCell_D2D.ueD2DRx[4].ipv4.ip packetDropForwardingDisabled:vector(packetBytes):sum 0
scalar SingleCell_D2D.ueD2DRx[4].ipv4.ip packetDropForwardingDisabled:vector(packetBytes):sumweights 0
scalar SingleCell_D2D.ueD2DRx[4].ipv4.ip packetDropForwardingDisabled:vector(packetBytes):mean -nan
scalar SingleCell_D2D.ueD2DRx[4].ipv4.ip packetDropForwardingDisabled:vector(packetBytes):stddev nan
scalar SingleCell_D2D.ueD2DRx[4].ipv4.ip packetDropForwardingDisabled:vector(packetBytes):min inf
scalar SingleCell_D2D.ueD2DRx[4].ipv4.ip packetDropForwardingDisabled:vector(packetBytes):max -inf
scalar SingleCell_D2D.ueD2DRx[4].ipv4.ip packetDropForwardingDisabled:vector(packetBytes):starttime nan
scalar SingleCell_D2D.ueD2DRx[4].ipv4.ip packetDropForwardingDisabled:vector(packetBytes):endtime nan
scalar SingleCell_D2D.ueD2DRx[4].ipv4.ip packetDropNoInterfaceFound:vector(packetBytes):count 0
scalar SingleCell_D2D.ueD2DRx[4].ipv4.ip packetDropNoInterfaceFound:vector(packetBytes):sum 0
scalar SingleCell_D2D.ueD2DRx[4].ipv4.ip packetDropNoInterfaceFound:vector(packetBytes):sumweights 0
scalar SingleCell_D2D.ueD2DRx[4].ipv4.ip packetDropNoInterfaceFound:vector(packetBytes):mean -nan
scalar SingleCell_D2D.ueD2DRx[4].ipv4.ip packetDropNoInterfaceFound:vector(packetBytes):stddev nan
scalar SingleCell_D2D.ueD2DRx[4].ipv4.ip packetDropNoInterfaceFound:vector(packetBytes):min inf
scalar SingleCell_D2D.ueD2DRx[4].ipv4.ip packetDropNoInterfaceFound:vector(packetBytes):max -inf
scalar SingleCell_D2D.ueD2DRx[4].ipv4.ip packetDropNoInterfaceFound:vector(packetBytes):starttime nan
scalar SingleCell_D2D.ueD2DRx[4].ipv4.ip packetDropNoInterfaceFound:vector(packetBytes):endtime nan
scalar SingleCell_D2D.ueD2DRx[4].ipv4.ip packetDropNoRouteFound:vector(packetBytes):count 0
scalar SingleCell_D2D.ueD2DRx[4].ipv4.ip packetDropNoRouteFound:vector(packetBytes):sum 0
scalar SingleCell_D2D.ueD2DRx[4].ipv4.ip packetDropNoRouteFound:vector(packetBytes):sumweights 0
scalar SingleCell_D2D.ueD2DRx[4].ipv4.ip packetDropNoRouteFound:vector(packetBytes):mean -nan
scalar SingleCell_D2D.ueD2DRx[4].ipv4.ip packetDropNoRouteFound:vector(packetBytes):stddev nan
scalar SingleCell_D2D.ueD2DRx[4].ipv4.ip packetDropNoRouteFound:vector(packetBytes):min inf
scalar SingleCell_D2D.ueD2DRx[4].ipv4.ip packetDropNoRouteFound:vector(packetBytes):max -inf
scalar SingleCell_D2D.ueD2DRx[4].ipv4.ip packetDropNoRouteFound:vector(packetBytes):starttime nan
scalar SingleCell_D2D.ueD2DRx[4].ipv4.ip packetDropNoRouteFound:vector(packetBytes):endtime nan
scalar SingleCell_D2D.ueD2DRx[4].ipv4.ip packetDropUndefined:vector(packetBytes):count 0
scalar SingleCell_D2D.ueD2DRx[4].ipv4.ip packetDropUndefined:vector(packetBytes):sum 0
scalar SingleCell_D2D.ueD2DRx[4].ipv4.ip packetDropUndefined:vector(packetBytes):sumweights 0
scalar SingleCell_D2D.ueD2DRx[4].ipv4.ip packetDropUndefined:vector(packetBytes):mean -nan
scalar SingleCell_D2D.ueD2DRx[4].ipv4.ip packetDropUndefined:vector(packetBytes):stddev nan
scalar SingleCell_D2D.ueD2DRx[4].ipv4.ip packetDropUndefined:vector(packetBytes):min inf
scalar SingleCell_D2D.ueD2DRx[4].ipv4.ip packetDropUndefined:vector(packetBytes):max -inf
scalar SingleCell_D2D.ueD2DRx[4].ipv4.ip packetDropUndefined:vector(packetBytes):starttime nan
scalar SingleCell_D2D.ueD2DRx[4].ipv4.ip packetDropUndefined:vector(packetBytes):endtime nan
scalar SingleCell_D2D.ueD2DRx[4].ipv4.arp arpRequestSent:vector(packetBytes):count 0
scalar SingleCell_D2D.ueD2DRx[4].ipv4.arp arpRequestSent:vector(packetBytes):sum 0
scalar SingleCell_D2D.ueD2DRx[4].ipv4.arp arpRequestSent:vector(packetBytes):sumweights 0
scalar SingleCell_D2D.ueD2DRx[4].ipv4.arp arpRequestSent:vector(packetBytes):mean -nan
scalar SingleCell_D2D.ueD2DRx[4].ipv4.arp arpRequestSent:vector(packetBytes):stddev nan
scalar SingleCell_D2D.ueD2DRx[4].ipv4.arp arpRequestSent:vector(packetBytes):min inf
scalar SingleCell_D2D.ueD2DRx[4].ipv4.arp arpRequestSent:vector(packetBytes):max -inf
scalar SingleCell_D2D.ueD2DRx[4].ipv4.arp arpRequestSent:vector(packetBytes):starttime nan
scalar SingleCell_D2D.ueD2DRx[4].ipv4.arp arpRequestSent:vector(packetBytes):endtime nan
scalar SingleCell_D2D.ueD2DRx[4].ipv4.arp arpReplySent:vector(packetBytes):count 0
scalar SingleCell_D2D.ueD2DRx[4].ipv4.arp arpReplySent:vector(packetBytes):sum 0
scalar SingleCell_D2D.ueD2DRx[4].ipv4.arp arpReplySent:vector(packetBytes):sumweights 0
scalar SingleCell_D2D.ueD2DRx[4].ipv4.arp arpReplySent:vector(packetBytes):mean -nan
scalar SingleCell_D2D.ueD2DRx[4].ipv4.arp arpReplySent:vector(packetBytes):stddev nan
scalar SingleCell_D2D.ueD2DRx[4].ipv4.arp arpReplySent:vector(packetBytes):min inf
scalar SingleCell_D2D.ueD2DRx[4].ipv4.arp arpReplySent:vector(packetBytes):max -inf
scalar SingleCell_D2D.ueD2DRx[4].ipv4.arp arpReplySent:vector(packetBytes):starttime nan
scalar SingleCell_D2D.ueD2DRx[4].ipv4.arp arpReplySent:vector(packetBytes):endtime nan
scalar SingleCell_D2D.ueD2DRx[4].udp packetSent:vector(packetBytes):count 0
scalar SingleCell_D2D.ueD2DRx[4].udp packetSent:vector(packetBytes):sum 0
scalar SingleCell_D2D.ueD2DRx[4].udp packetSent:vector(packetBytes):sumweights 0
scalar SingleCell_D2D.ueD2DRx[4].udp packetSent:vector(packetBytes):mean -nan
scalar SingleCell_D2D.ueD2DRx[4].udp packetSent:vector(packetBytes):stddev nan
scalar SingleCell_D2D.ueD2DRx[4].udp packetSent:vector(packetBytes):min inf
scalar SingleCell_D2D.ueD2DRx[4].udp packetSent:vector(packetBytes):max -inf
scalar SingleCell_D2D.ueD2DRx[4].udp packetSent:vector(packetBytes):starttime nan
scalar SingleCell_D2D.ueD2DRx[4].udp packetSent:vector(packetBytes):endtime nan
scalar SingleCell_D2D.ueD2DRx[4].udp packetReceived:vector(packetBytes):count 165
scalar SingleCell_D2D.ueD2DRx[4].udp packetReceived:vector(packetBytes):sum 7920
scalar SingleCell_D2D.ueD2DRx[4].udp packetReceived:vector(packetBytes):sumweights 165
scalar SingleCell_D2D.ueD2DRx[4].udp packetReceived:vector(packetBytes):mean 48
scalar SingleCell_D2D.ueD2DRx[4].udp packetReceived:vector(packetBytes):stddev 0
scalar SingleCell_D2D.ueD2DRx[4].udp packetReceived:vector(packetBytes):min 48
scalar SingleCell_D2D.ueD2DRx[4].udp packetReceived:vector(packetBytes):max 48
scalar SingleCell_D2D.ueD2DRx[4].udp packetReceived:vector(packetBytes):starttime 0.023
scalar SingleCell_D2D.ueD2DRx[4].udp packetReceived:vector(packetBytes):endtime 4.9889999999999999
scalar SingleCell_D2D.ueD2DRx[4].udp passedUpPk:vector(count):count 166
scalar SingleCell_D2D.ueD2DRx[4].udp passedUpPk:vector(count):sum 13695
scalar SingleCell_D2D.ueD2DRx[4].udp passedUpPk:vector(count):sumweights 166
scalar SingleCell_D2D.ueD2DRx[4].udp passedUpPk:vector(count):mean 82.5
scalar SingleCell_D2D.ueD2DRx[4].udp passedUpPk:vector(count):stddev 48.064193186473716
scalar SingleCell_D2D.ueD2DRx[4].udp passedUpPk:vector(count):min 0
scalar SingleCell_D2D.ueD2DRx[4].udp passedUpPk:vector(count):max 165
scalar SingleCell_D2D.ueD2DRx[4].udp passedUpPk:vector(count):starttime 0
scalar SingleCell_D2D.ueD2DRx[4].udp passedUpPk:vector(count):endtime 4.9889999999999999
scalar SingleCell_D2D.ueD2DRx[4].udp droppedPkWrongPort:vector(count):count 1
scalar SingleCell_D2D.ueD2DRx[4].udp droppedPkWrongPort:vector(count):sum 0
scalar SingleCell_D2D.ueD2DRx[4].udp droppedPkWrongPort:vector(count):sumweights 1
scalar SingleCell_D2D.ueD2DRx[4].udp droppedPkWrongPort:vector(count):mean 0
scalar SingleCell_D2D.ueD2DRx[4].udp droppedPkWrongPort:vector(count):stddev nan
scalar SingleCell_D2D.ueD2DRx[4].udp droppedPkWrongPort:vector(count):min 0
scalar SingleCell_D2D.ueD2DRx[4].udp droppedPkWrongPort:vector(count):max 0
scalar SingleCell_D2D.ueD2DRx[4].udp droppedPkWrongPort:vector(count):starttime 0
scalar SingleCell_D2D.ueD2DRx[4].udp droppedPkWrongPort:vector(count):endtime 0
scalar SingleCell_D2D.ueD2DRx[4].udp droppedPkBadChecksum:vector(count):count 1
scalar SingleCell_D2D.ueD2DRx[4].udp droppedPkBadChecksum:vector(count):sum 0
scalar SingleCell_D2D.ueD2DRx[4].udp droppedPkBadChecksum:vector(count):sumweights 1
scalar SingleCell_D2D.ueD2DRx[4].udp droppedPkBadChecksum:vector(count):mean 0
scalar SingleCell_D2D.ueD2DRx[4].udp droppedPkBadChecksum:vector(count):stddev nan
scalar SingleCell_D2D.ueD2DRx[4].udp droppedPkBadChecksum:vector(count):min 0
scalar SingleCell_D2D.ueD2DRx[4].udp droppedPkBadChecksum:vector(count):max 0
scalar SingleCell_D2D.ueD2DRx[4].udp droppedPkBadChecksum:vector(count):starttime 0
scalar SingleCell_D2D.ueD2DRx[4].udp droppedPkBadChecksum:vector(count):endtime 0
scalar SingleCell_D2D.ueD2DRx[4].app[0] voIPFrameDelay:vector:count 165
scalar SingleCell_D2D.ueD2DRx[4].app[0] voIPFrameDelay:vector:sum 2.3922485271959957
scalar SingleCell_D2D.ueD2DRx[4].app[0] voIPFrameDelay:vector:sumweights 165
scalar SingleCell_D2D.ueD2DRx[4].app[0] voIPFrameDelay:vector:mean 0.014498475922399974
scalar SingleCell_D2D.ueD2DRx[4].app[0] voIPFrameDelay:vector:stddev 1.4428488016176349e-05
scalar SingleCell_D2D.ueD2DRx[4].app[0] voIPFrameDelay:vector:min 0.014463609714999999
scalar SingleCell_D2D.ueD2DRx[4].app[0] voIPFrameDelay:vector:max 0.014504410596
scalar SingleCell_D2D.ueD2DRx[4].app[0] voIPFrameDelay:vector:starttime 0.023
scalar SingleCell_D2D.ueD2DRx[4].app[0] voIPFrameDelay:vector:endtime 4.9889999999999999
scalar SingleCell_D2D.ueD2DRx[4].app[0] voIPReceivedThroughput:vector:count 165
scalar SingleCell_D2D.ueD2DRx[4].app[0] voIPReceivedThroughput:vector:sum 188682.9254034062
scalar SingleCell_D2D.ueD2DRx[4].app[0] voIPReceivedThroughput:vector:sumweights 165
scalar SingleCell_D2D.ueD2DRx[4].app[0] voIPReceivedThroughput:vector:mean 1143.5328812327648
scalar SingleCell_D2D.ueD2DRx[4].app[0] voIPReceivedThroughput:vector:stddev 404.15752254407334
scalar SingleCell_D2D.ueD2DRx[4].app[0] voIPReceivedThroughput:vector:min 456.82960255824577
scalar SingleCell_D2D.ueD2DRx[4].app[0] voIPReceivedThroughput:vector:max 1987.5776397515529
scalar SingleCell_D2D.ueD2DRx[4].app[0] voIPReceivedThroughput:vector:starttime 0.023
scalar SingleCell_D2D.ueD2DRx[4].app[0] voIPReceivedThroughput:vector:endtime 4.9889999999999999

