version 3
run MultiplePairs-TCP-D2D-0-20260712-14:05:25-20309
attr configname MultiplePairs-TCP-D2D
attr datetime 20260712-14:05:25
attr datetimef 20260712-140525
attr experiment MultiplePairs-TCP-D2D
attr inifile omnetpp.ini
attr iterationvars $numPairs=5
attr iterationvarsd numPairs=5
attr iterationvarsf numPairs=5-
attr measurement $numPairs=5
attr network simu5g.simulations.lte.networks.SingleCell_D2D
attr processid 20309
attr repetition 0
attr replication #0
attr resultdir results
attr runnumber 0
attr seedset 0
itervar numPairs 5
config **.param-recording false
config image-path /home/andras/projects/Simu5G-fork/simu5g-fork/images
config output-scalar-file results/omnetpp.ini-MultiplePairs-TCP-D2D-#0.sca
config output-scalar-precision 17
config output-vector-file results/omnetpp.ini-MultiplePairs-TCP-D2D-#0.vec
config output-vector-precision 17
config record-eventlog false
config sim-time-limit 5s
config extends MultiplePairs-TCP-Infra
config *.eNB*.cellularNic.typename LteNicEnbD2D
config *.ueD2D*[*].cellularNic.typename LteNicUeD2D
config **.amcMode "\"D2D\""
config *.ueD2D*[*].cellularNic.d2dInitialMode true
config *.eNB.cellularNic.phy.enableD2DCqiReporting true
config **.usePreconfiguredTxParams false
config **.d2dCqi 7
config extends MultiplePairs
config *.ueD2D*[*].numApps 1
config *.ueD2DTx[*].app[*].typename TcpSessionApp
config *.ueD2DTx[*].app[*].connectPort 1000
config *.ueD2DTx[*].app[*].localPort 1000
config *.ueD2DTx[*].app[*].sendBytes 1GiB
config *.ueD2DTx[*].app[*].active true
config *.ueD2DTx[*].app[*].tOpen uniform(0.010s,0.1s)
config *.ueD2DTx[*].app[*].tSend uniform(0.15s,0.5s)
config *.ueD2DTx[*].app[*].connectAddress "\"ueD2DRx[\" + string(ancestorIndex(1)) + \"]\""
config *.ueD2DTx[*].app[*].localAddress "\"ueD2DTx[\" + string(ancestorIndex(1)) + \"]\""
config *.ueD2DRx[*].app[*].typename TcpSinkApp
config *.ueD2DRx[*].app[*].localPort 1000
config **.app[*].tClose -1s
config *.eNB*.cellularNic.typename LteNicEnb
config *.ueD2D*[*].cellularNic.typename LteNicUe
config **.amcMode "\"AUTO\""
config network simu5g.simulations.lte.networks.SingleCell_D2D
config *.eNB.mobility.initFromDisplayString false
config *.eNB.mobility.initialX 300m
config *.eNB.mobility.initialY 300m
config *.numUeCell 0
config *.numUeD2DTx 5
config *.numUeD2DRx 5
config *.ue*[*].servingNodeId 1
config *.ue*[*].mobility.initFromDisplayString false
config *.ueD2D*[*].mobility.initialX uniform(290m,310m)
config *.ueD2D*[*].mobility.initialY uniform(340m,350m)
config sim-time-limit 5s
config warmup-period 0s
config repeat 3
config **.routingRecorder.enabled false
config output-scalar-file results/MultiplePairs-TCP-D2D/0.sca
config output-vector-file results/MultiplePairs-TCP-D2D/0.vec
config seed-set 0
config **.vector-recording true
config **.mobility.constraintAreaMinZ 0m
config **.mobility.constraintAreaMaxZ 0m
config **.numBands 50
config *.configurator.config "xmldoc(\"./demo.xml\")"

scalar SingleCell_D2D.server.lo[0].lo rcvdPkFromHl:count 0
scalar SingleCell_D2D.server.lo[0].lo rcvdPkFromHl:sum(packetBytes) 0
scalar SingleCell_D2D.server.lo[0].lo passedUpPk:count 0
scalar SingleCell_D2D.server.lo[0].lo passedUpPk:sum(packetBytes) 0
scalar SingleCell_D2D.server.lo[0] packetDropInterfaceDown:count 0
scalar SingleCell_D2D.server.lo[0] packetDropInterfaceDown:sum(packetBytes) 0
scalar SingleCell_D2D.server.lo[0] packetDropNoCarrier:count 0
scalar SingleCell_D2D.server.lo[0] packetDropNoCarrier:sum(packetBytes) 0
scalar SingleCell_D2D.server.ppp[0].queue queueLength:last 0
scalar SingleCell_D2D.server.ppp[0].queue queueLength:max 0
scalar SingleCell_D2D.server.ppp[0].queue queueLength:timeavg 0
scalar SingleCell_D2D.server.ppp[0].queue queueBitLength:last 0
scalar SingleCell_D2D.server.ppp[0].queue queueBitLength:max 0
scalar SingleCell_D2D.server.ppp[0].queue queueBitLength:timeavg 0
scalar SingleCell_D2D.server.ppp[0].queue outgoingPackets:count 0
scalar SingleCell_D2D.server.ppp[0].queue outgoingPacketLengths:sum 0
scalar SingleCell_D2D.server.ppp[0].queue incomingPackets:count 0
scalar SingleCell_D2D.server.ppp[0].queue incomingPacketLengths:sum 0
scalar SingleCell_D2D.server.ppp[0].queue droppedPacketsQueueOverflow:count 0
scalar SingleCell_D2D.server.ppp[0].queue droppedPacketLengthsQueueOverflow:sum 0
scalar SingleCell_D2D.server.ppp[0].ppp transmissionState:timeavg 0
scalar SingleCell_D2D.server.ppp[0].ppp rxPkOk:count 0
scalar SingleCell_D2D.server.ppp[0].ppp rxPkOk:sum(packetBytes) 0
scalar SingleCell_D2D.server.ppp[0].ppp txPk:count 0
scalar SingleCell_D2D.server.ppp[0].ppp txPk:sum(packetBytes) 0
scalar SingleCell_D2D.server.ppp[0].ppp rcvdPkFromHl:count 0
scalar SingleCell_D2D.server.ppp[0].ppp rcvdPkFromHl:sum(packetBytes) 0
scalar SingleCell_D2D.server.ppp[0].ppp passedUpPk:count 0
scalar SingleCell_D2D.server.ppp[0].ppp passedUpPk:sum(packetBytes) 0
scalar SingleCell_D2D.server.ppp[0].ppp packetDropIncorrectlyReceived:count 0
scalar SingleCell_D2D.server.ppp[0].ppp packetDropIncorrectlyReceived:sum(packetBytes) 0
scalar SingleCell_D2D.server.ppp[0].ppp packetDropInterfaceDown:count 0
scalar SingleCell_D2D.server.ppp[0].ppp packetDropInterfaceDown:sum(packetBytes) 0
scalar SingleCell_D2D.server.ppp[0] packetDropInterfaceDown:count 0
scalar SingleCell_D2D.server.ppp[0] packetDropInterfaceDown:sum(packetBytes) 0
scalar SingleCell_D2D.server.ppp[0] packetDropNoCarrier:count 0
scalar SingleCell_D2D.server.ppp[0] packetDropNoCarrier:sum(packetBytes) 0
scalar SingleCell_D2D.server.ipv4.ip packetDropAddressResolutionFailed:count 0
scalar SingleCell_D2D.server.ipv4.ip packetDropAddressResolutionFailed:sum(packetBytes) 0
scalar SingleCell_D2D.server.ipv4.ip packetDropHopLimitReached:count 0
scalar SingleCell_D2D.server.ipv4.ip packetDropHopLimitReached:sum(packetBytes) 0
scalar SingleCell_D2D.server.ipv4.ip packetDropForwardingDisabled:count 0
scalar SingleCell_D2D.server.ipv4.ip packetDropForwardingDisabled:sum(packetBytes) 0
scalar SingleCell_D2D.server.ipv4.ip packetDropNoInterfaceFound:count 0
scalar SingleCell_D2D.server.ipv4.ip packetDropNoInterfaceFound:sum(packetBytes) 0
scalar SingleCell_D2D.server.ipv4.ip packetDropNoRouteFound:count 0
scalar SingleCell_D2D.server.ipv4.ip packetDropNoRouteFound:sum(packetBytes) 0
scalar SingleCell_D2D.server.ipv4.ip packetDropUndefined:count 0
scalar SingleCell_D2D.server.ipv4.ip packetDropUndefined:sum(packetBytes) 0
scalar SingleCell_D2D.server.ipv4.arp arpResolutionFailed:count 0
scalar SingleCell_D2D.server.ipv4.arp arpResolutionCompleted:count 0
scalar SingleCell_D2D.server.ipv4.arp arpResolutionInitiated:count 0
scalar SingleCell_D2D.server.ipv4.arp arpReplySent:count 0
scalar SingleCell_D2D.server.ipv4.arp arpReplySent:sum(packetBytes) 0
scalar SingleCell_D2D.server.ipv4.arp arpRequestSent:count 0
scalar SingleCell_D2D.server.ipv4.arp arpRequestSent:sum(packetBytes) 0
scalar SingleCell_D2D.server.udp packetReceived:count 0
scalar SingleCell_D2D.server.udp packetReceived:sum(packetBytes) 0
scalar SingleCell_D2D.server.udp packetSent:count 0
scalar SingleCell_D2D.server.udp packetSent:sum(packetBytes) 0
scalar SingleCell_D2D.server.udp passedUpPk:count 0
scalar SingleCell_D2D.server.udp droppedPkWrongPort:count 0
scalar SingleCell_D2D.server.udp droppedPkBadChecksum:count 0
scalar SingleCell_D2D.router.lo[0].lo rcvdPkFromHl:count 0
scalar SingleCell_D2D.router.lo[0].lo rcvdPkFromHl:sum(packetBytes) 0
scalar SingleCell_D2D.router.lo[0].lo passedUpPk:count 0
scalar SingleCell_D2D.router.lo[0].lo passedUpPk:sum(packetBytes) 0
scalar SingleCell_D2D.router.lo[0] packetDropInterfaceDown:count 0
scalar SingleCell_D2D.router.lo[0] packetDropInterfaceDown:sum(packetBytes) 0
scalar SingleCell_D2D.router.lo[0] packetDropNoCarrier:count 0
scalar SingleCell_D2D.router.lo[0] packetDropNoCarrier:sum(packetBytes) 0
scalar SingleCell_D2D.router.ppp[0].queue queueLength:last 0
scalar SingleCell_D2D.router.ppp[0].queue queueLength:max 0
scalar SingleCell_D2D.router.ppp[0].queue queueLength:timeavg 0
scalar SingleCell_D2D.router.ppp[0].queue queueBitLength:last 0
scalar SingleCell_D2D.router.ppp[0].queue queueBitLength:max 0
scalar SingleCell_D2D.router.ppp[0].queue queueBitLength:timeavg 0
scalar SingleCell_D2D.router.ppp[0].queue outgoingPackets:count 0
scalar SingleCell_D2D.router.ppp[0].queue outgoingPacketLengths:sum 0
scalar SingleCell_D2D.router.ppp[0].queue incomingPackets:count 0
scalar SingleCell_D2D.router.ppp[0].queue incomingPacketLengths:sum 0
scalar SingleCell_D2D.router.ppp[0].queue droppedPacketsQueueOverflow:count 0
scalar SingleCell_D2D.router.ppp[0].queue droppedPacketLengthsQueueOverflow:sum 0
scalar SingleCell_D2D.router.ppp[0].ppp transmissionState:timeavg 0
scalar SingleCell_D2D.router.ppp[0].ppp rxPkOk:count 0
scalar SingleCell_D2D.router.ppp[0].ppp rxPkOk:sum(packetBytes) 0
scalar SingleCell_D2D.router.ppp[0].ppp txPk:count 0
scalar SingleCell_D2D.router.ppp[0].ppp txPk:sum(packetBytes) 0
scalar SingleCell_D2D.router.ppp[0].ppp rcvdPkFromHl:count 0
scalar SingleCell_D2D.router.ppp[0].ppp rcvdPkFromHl:sum(packetBytes) 0
scalar SingleCell_D2D.router.ppp[0].ppp passedUpPk:count 0
scalar SingleCell_D2D.router.ppp[0].ppp passedUpPk:sum(packetBytes) 0
scalar SingleCell_D2D.router.ppp[0].ppp packetDropIncorrectlyReceived:count 0
scalar SingleCell_D2D.router.ppp[0].ppp packetDropIncorrectlyReceived:sum(packetBytes) 0
scalar SingleCell_D2D.router.ppp[0].ppp packetDropInterfaceDown:count 0
scalar SingleCell_D2D.router.ppp[0].ppp packetDropInterfaceDown:sum(packetBytes) 0
scalar SingleCell_D2D.router.ppp[0] packetDropInterfaceDown:count 0
scalar SingleCell_D2D.router.ppp[0] packetDropInterfaceDown:sum(packetBytes) 0
scalar SingleCell_D2D.router.ppp[0] packetDropNoCarrier:count 0
scalar SingleCell_D2D.router.ppp[0] packetDropNoCarrier:sum(packetBytes) 0
scalar SingleCell_D2D.router.ppp[1].queue queueLength:last 0
scalar SingleCell_D2D.router.ppp[1].queue queueLength:max 0
scalar SingleCell_D2D.router.ppp[1].queue queueLength:timeavg 0
scalar SingleCell_D2D.router.ppp[1].queue queueBitLength:last 0
scalar SingleCell_D2D.router.ppp[1].queue queueBitLength:max 0
scalar SingleCell_D2D.router.ppp[1].queue queueBitLength:timeavg 0
scalar SingleCell_D2D.router.ppp[1].queue outgoingPackets:count 0
scalar SingleCell_D2D.router.ppp[1].queue outgoingPacketLengths:sum 0
scalar SingleCell_D2D.router.ppp[1].queue incomingPackets:count 0
scalar SingleCell_D2D.router.ppp[1].queue incomingPacketLengths:sum 0
scalar SingleCell_D2D.router.ppp[1].queue droppedPacketsQueueOverflow:count 0
scalar SingleCell_D2D.router.ppp[1].queue droppedPacketLengthsQueueOverflow:sum 0
scalar SingleCell_D2D.router.ppp[1].ppp transmissionState:timeavg 0
scalar SingleCell_D2D.router.ppp[1].ppp rxPkOk:count 0
scalar SingleCell_D2D.router.ppp[1].ppp rxPkOk:sum(packetBytes) 0
scalar SingleCell_D2D.router.ppp[1].ppp txPk:count 0
scalar SingleCell_D2D.router.ppp[1].ppp txPk:sum(packetBytes) 0
scalar SingleCell_D2D.router.ppp[1].ppp rcvdPkFromHl:count 0
scalar SingleCell_D2D.router.ppp[1].ppp rcvdPkFromHl:sum(packetBytes) 0
scalar SingleCell_D2D.router.ppp[1].ppp passedUpPk:count 0
scalar SingleCell_D2D.router.ppp[1].ppp passedUpPk:sum(packetBytes) 0
scalar SingleCell_D2D.router.ppp[1].ppp packetDropIncorrectlyReceived:count 0
scalar SingleCell_D2D.router.ppp[1].ppp packetDropIncorrectlyReceived:sum(packetBytes) 0
scalar SingleCell_D2D.router.ppp[1].ppp packetDropInterfaceDown:count 0
scalar SingleCell_D2D.router.ppp[1].ppp packetDropInterfaceDown:sum(packetBytes) 0
scalar SingleCell_D2D.router.ppp[1] packetDropInterfaceDown:count 0
scalar SingleCell_D2D.router.ppp[1] packetDropInterfaceDown:sum(packetBytes) 0
scalar SingleCell_D2D.router.ppp[1] packetDropNoCarrier:count 0
scalar SingleCell_D2D.router.ppp[1] packetDropNoCarrier:sum(packetBytes) 0
scalar SingleCell_D2D.router.ipv4.ip packetDropAddressResolutionFailed:count 0
scalar SingleCell_D2D.router.ipv4.ip packetDropAddressResolutionFailed:sum(packetBytes) 0
scalar SingleCell_D2D.router.ipv4.ip packetDropHopLimitReached:count 0
scalar SingleCell_D2D.router.ipv4.ip packetDropHopLimitReached:sum(packetBytes) 0
scalar SingleCell_D2D.router.ipv4.ip packetDropForwardingDisabled:count 0
scalar SingleCell_D2D.router.ipv4.ip packetDropForwardingDisabled:sum(packetBytes) 0
scalar SingleCell_D2D.router.ipv4.ip packetDropNoInterfaceFound:count 0
scalar SingleCell_D2D.router.ipv4.ip packetDropNoInterfaceFound:sum(packetBytes) 0
scalar SingleCell_D2D.router.ipv4.ip packetDropNoRouteFound:count 0
scalar SingleCell_D2D.router.ipv4.ip packetDropNoRouteFound:sum(packetBytes) 0
scalar SingleCell_D2D.router.ipv4.ip packetDropUndefined:count 0
scalar SingleCell_D2D.router.ipv4.ip packetDropUndefined:sum(packetBytes) 0
scalar SingleCell_D2D.router.ipv4.arp arpResolutionFailed:count 0
scalar SingleCell_D2D.router.ipv4.arp arpResolutionCompleted:count 0
scalar SingleCell_D2D.router.ipv4.arp arpResolutionInitiated:count 0
scalar SingleCell_D2D.router.ipv4.arp arpReplySent:count 0
scalar SingleCell_D2D.router.ipv4.arp arpReplySent:sum(packetBytes) 0
scalar SingleCell_D2D.router.ipv4.arp arpRequestSent:count 0
scalar SingleCell_D2D.router.ipv4.arp arpRequestSent:sum(packetBytes) 0
scalar SingleCell_D2D.pgw.lo[0].lo rcvdPkFromHl:count 0
scalar SingleCell_D2D.pgw.lo[0].lo rcvdPkFromHl:sum(packetBytes) 0
scalar SingleCell_D2D.pgw.lo[0].lo passedUpPk:count 0
scalar SingleCell_D2D.pgw.lo[0].lo passedUpPk:sum(packetBytes) 0
scalar SingleCell_D2D.pgw.lo[0] packetDropInterfaceDown:count 0
scalar SingleCell_D2D.pgw.lo[0] packetDropInterfaceDown:sum(packetBytes) 0
scalar SingleCell_D2D.pgw.lo[0] packetDropNoCarrier:count 0
scalar SingleCell_D2D.pgw.lo[0] packetDropNoCarrier:sum(packetBytes) 0
scalar SingleCell_D2D.pgw.ppp[0].queue queueLength:last 0
scalar SingleCell_D2D.pgw.ppp[0].queue queueLength:max 0
scalar SingleCell_D2D.pgw.ppp[0].queue queueLength:timeavg 0
scalar SingleCell_D2D.pgw.ppp[0].queue queueBitLength:last 0
scalar SingleCell_D2D.pgw.ppp[0].queue queueBitLength:max 0
scalar SingleCell_D2D.pgw.ppp[0].queue queueBitLength:timeavg 0
scalar SingleCell_D2D.pgw.ppp[0].queue outgoingPackets:count 0
scalar SingleCell_D2D.pgw.ppp[0].queue outgoingPacketLengths:sum 0
scalar SingleCell_D2D.pgw.ppp[0].queue incomingPackets:count 0
scalar SingleCell_D2D.pgw.ppp[0].queue incomingPacketLengths:sum 0
scalar SingleCell_D2D.pgw.ppp[0].queue droppedPacketsQueueOverflow:count 0
scalar SingleCell_D2D.pgw.ppp[0].queue droppedPacketLengthsQueueOverflow:sum 0
scalar SingleCell_D2D.pgw.ppp[0].ppp transmissionState:timeavg 0
scalar SingleCell_D2D.pgw.ppp[0].ppp rxPkOk:count 0
scalar SingleCell_D2D.pgw.ppp[0].ppp rxPkOk:sum(packetBytes) 0
scalar SingleCell_D2D.pgw.ppp[0].ppp txPk:count 0
scalar SingleCell_D2D.pgw.ppp[0].ppp txPk:sum(packetBytes) 0
scalar SingleCell_D2D.pgw.ppp[0].ppp rcvdPkFromHl:count 0
scalar SingleCell_D2D.pgw.ppp[0].ppp rcvdPkFromHl:sum(packetBytes) 0
scalar SingleCell_D2D.pgw.ppp[0].ppp passedUpPk:count 0
scalar SingleCell_D2D.pgw.ppp[0].ppp passedUpPk:sum(packetBytes) 0
scalar SingleCell_D2D.pgw.ppp[0].ppp packetDropIncorrectlyReceived:count 0
scalar SingleCell_D2D.pgw.ppp[0].ppp packetDropIncorrectlyReceived:sum(packetBytes) 0
scalar SingleCell_D2D.pgw.ppp[0].ppp packetDropInterfaceDown:count 0
scalar SingleCell_D2D.pgw.ppp[0].ppp packetDropInterfaceDown:sum(packetBytes) 0
scalar SingleCell_D2D.pgw.ppp[0] packetDropInterfaceDown:count 0
scalar SingleCell_D2D.pgw.ppp[0] packetDropInterfaceDown:sum(packetBytes) 0
scalar SingleCell_D2D.pgw.ppp[0] packetDropNoCarrier:count 0
scalar SingleCell_D2D.pgw.ppp[0] packetDropNoCarrier:sum(packetBytes) 0
scalar SingleCell_D2D.pgw.ipv4.ip packetDropAddressResolutionFailed:count 0
scalar SingleCell_D2D.pgw.ipv4.ip packetDropAddressResolutionFailed:sum(packetBytes) 0
scalar SingleCell_D2D.pgw.ipv4.ip packetDropHopLimitReached:count 0
scalar SingleCell_D2D.pgw.ipv4.ip packetDropHopLimitReached:sum(packetBytes) 0
scalar SingleCell_D2D.pgw.ipv4.ip packetDropForwardingDisabled:count 0
scalar SingleCell_D2D.pgw.ipv4.ip packetDropForwardingDisabled:sum(packetBytes) 0
scalar SingleCell_D2D.pgw.ipv4.ip packetDropNoInterfaceFound:count 0
scalar SingleCell_D2D.pgw.ipv4.ip packetDropNoInterfaceFound:sum(packetBytes) 0
scalar SingleCell_D2D.pgw.ipv4.ip packetDropNoRouteFound:count 0
scalar SingleCell_D2D.pgw.ipv4.ip packetDropNoRouteFound:sum(packetBytes) 0
scalar SingleCell_D2D.pgw.ipv4.ip packetDropUndefined:count 0
scalar SingleCell_D2D.pgw.ipv4.ip packetDropUndefined:sum(packetBytes) 0
scalar SingleCell_D2D.pgw.ipv4.arp arpResolutionFailed:count 0
scalar SingleCell_D2D.pgw.ipv4.arp arpResolutionCompleted:count 0
scalar SingleCell_D2D.pgw.ipv4.arp arpResolutionInitiated:count 0
scalar SingleCell_D2D.pgw.ipv4.arp arpReplySent:count 0
scalar SingleCell_D2D.pgw.ipv4.arp arpReplySent:sum(packetBytes) 0
scalar SingleCell_D2D.pgw.ipv4.arp arpRequestSent:count 0
scalar SingleCell_D2D.pgw.ipv4.arp arpRequestSent:sum(packetBytes) 0
scalar SingleCell_D2D.pgw.pppIf.queue queueLength:last 0
scalar SingleCell_D2D.pgw.pppIf.queue queueLength:max 0
scalar SingleCell_D2D.pgw.pppIf.queue queueLength:timeavg 0
scalar SingleCell_D2D.pgw.pppIf.queue queueBitLength:last 0
scalar SingleCell_D2D.pgw.pppIf.queue queueBitLength:max 0
scalar SingleCell_D2D.pgw.pppIf.queue queueBitLength:timeavg 0
scalar SingleCell_D2D.pgw.pppIf.queue outgoingPackets:count 0
scalar SingleCell_D2D.pgw.pppIf.queue outgoingPacketLengths:sum 0
scalar SingleCell_D2D.pgw.pppIf.queue incomingPackets:count 0
scalar SingleCell_D2D.pgw.pppIf.queue incomingPacketLengths:sum 0
scalar SingleCell_D2D.pgw.pppIf.queue droppedPacketsQueueOverflow:count 0
scalar SingleCell_D2D.pgw.pppIf.queue droppedPacketLengthsQueueOverflow:sum 0
scalar SingleCell_D2D.pgw.pppIf.ppp transmissionState:timeavg 0
scalar SingleCell_D2D.pgw.pppIf.ppp rxPkOk:count 0
scalar SingleCell_D2D.pgw.pppIf.ppp rxPkOk:sum(packetBytes) 0
scalar SingleCell_D2D.pgw.pppIf.ppp txPk:count 0
scalar SingleCell_D2D.pgw.pppIf.ppp txPk:sum(packetBytes) 0
scalar SingleCell_D2D.pgw.pppIf.ppp rcvdPkFromHl:count 0
scalar SingleCell_D2D.pgw.pppIf.ppp rcvdPkFromHl:sum(packetBytes) 0
scalar SingleCell_D2D.pgw.pppIf.ppp passedUpPk:count 0
scalar SingleCell_D2D.pgw.pppIf.ppp passedUpPk:sum(packetBytes) 0
scalar SingleCell_D2D.pgw.pppIf.ppp packetDropIncorrectlyReceived:count 0
scalar SingleCell_D2D.pgw.pppIf.ppp packetDropIncorrectlyReceived:sum(packetBytes) 0
scalar SingleCell_D2D.pgw.pppIf.ppp packetDropInterfaceDown:count 0
scalar SingleCell_D2D.pgw.pppIf.ppp packetDropInterfaceDown:sum(packetBytes) 0
scalar SingleCell_D2D.pgw.pppIf packetDropInterfaceDown:count 0
scalar SingleCell_D2D.pgw.pppIf packetDropInterfaceDown:sum(packetBytes) 0
scalar SingleCell_D2D.pgw.pppIf packetDropNoCarrier:count 0
scalar SingleCell_D2D.pgw.pppIf packetDropNoCarrier:sum(packetBytes) 0
scalar SingleCell_D2D.pgw.udp packetReceived:count 0
scalar SingleCell_D2D.pgw.udp packetReceived:sum(packetBytes) 0
scalar SingleCell_D2D.pgw.udp packetSent:count 0
scalar SingleCell_D2D.pgw.udp packetSent:sum(packetBytes) 0
scalar SingleCell_D2D.pgw.udp passedUpPk:count 0
scalar SingleCell_D2D.pgw.udp droppedPkWrongPort:count 0
scalar SingleCell_D2D.pgw.udp droppedPkBadChecksum:count 0
scalar SingleCell_D2D.eNB.cellularNic.pdcp sentPacketToLowerLayer:count 0
scalar SingleCell_D2D.eNB.cellularNic.pdcp sentPacketToLowerLayer:sum(packetBytes) 0
scalar SingleCell_D2D.eNB.cellularNic.pdcp sentPacketToUpperLayer:count 0
scalar SingleCell_D2D.eNB.cellularNic.pdcp sentPacketToUpperLayer:sum(packetBytes) 0
scalar SingleCell_D2D.eNB.cellularNic.pdcp receivedPacketFromLowerLayer:count 0
scalar SingleCell_D2D.eNB.cellularNic.pdcp receivedPacketFromLowerLayer:sum(packetBytes) 0
scalar SingleCell_D2D.eNB.cellularNic.pdcp receivedPacketFromUpperLayer:count 0
scalar SingleCell_D2D.eNB.cellularNic.pdcp receivedPacketFromUpperLayer:sum(packetBytes) 0
scalar SingleCell_D2D.eNB.cellularNic.rlc.tm rlcPacketLossUl:mean -nan
scalar SingleCell_D2D.eNB.cellularNic.rlc.tm rlcPacketLossUl:sum 0
scalar SingleCell_D2D.eNB.cellularNic.rlc.tm rlcPacketLossDl:mean -nan
scalar SingleCell_D2D.eNB.cellularNic.rlc.tm rlcPacketLossDl:sum 0
scalar SingleCell_D2D.eNB.cellularNic.rlc.tm sentPacketToLowerLayer:count 0
scalar SingleCell_D2D.eNB.cellularNic.rlc.tm sentPacketToLowerLayer:sum(packetBytes) 0
scalar SingleCell_D2D.eNB.cellularNic.rlc.tm sentPacketToUpperLayer:count 0
scalar SingleCell_D2D.eNB.cellularNic.rlc.tm sentPacketToUpperLayer:sum(packetBytes) 0
scalar SingleCell_D2D.eNB.cellularNic.rlc.tm receivedPacketFromLowerLayer:count 0
scalar SingleCell_D2D.eNB.cellularNic.rlc.tm receivedPacketFromLowerLayer:sum(packetBytes) 0
scalar SingleCell_D2D.eNB.cellularNic.rlc.tm receivedPacketFromUpperLayer:count 0
scalar SingleCell_D2D.eNB.cellularNic.rlc.tm receivedPacketFromUpperLayer:sum(packetBytes) 0
scalar SingleCell_D2D.eNB.cellularNic.rlc.um rlcCellThroughputD2D:simu5g_rateavg -nan
scalar SingleCell_D2D.eNB.cellularNic.rlc.um rlcPduThroughputD2D:simu5g_rateavg -nan
scalar SingleCell_D2D.eNB.cellularNic.rlc.um rlcPduDelayD2D:mean -nan
scalar SingleCell_D2D.eNB.cellularNic.rlc.um rlcThroughputD2D:simu5g_rateavg -nan
scalar SingleCell_D2D.eNB.cellularNic.rlc.um rlcDelayD2D:mean -nan
scalar SingleCell_D2D.eNB.cellularNic.rlc.um rlcCellThroughputUl:simu5g_rateavg -nan
scalar SingleCell_D2D.eNB.cellularNic.rlc.um rlcCellThroughputDl:simu5g_rateavg 1045618.5545070766
scalar SingleCell_D2D.eNB.cellularNic.rlc.um rlcPduThroughputUl:simu5g_rateavg -nan
scalar SingleCell_D2D.eNB.cellularNic.rlc.um rlcPduThroughputDl:simu5g_rateavg -nan
scalar SingleCell_D2D.eNB.cellularNic.rlc.um rlcPduDelayUl:mean -nan
scalar SingleCell_D2D.eNB.cellularNic.rlc.um rlcPduDelayDl:mean -nan
scalar SingleCell_D2D.eNB.cellularNic.rlc.um rlcThroughputUl:simu5g_rateavg -nan
scalar SingleCell_D2D.eNB.cellularNic.rlc.um rlcThroughputDl:simu5g_rateavg -nan
scalar SingleCell_D2D.eNB.cellularNic.rlc.um rlcDelayUl:mean -nan
scalar SingleCell_D2D.eNB.cellularNic.rlc.um rlcDelayDl:mean -nan
scalar SingleCell_D2D.eNB.cellularNic.rlc.um sentPacketToLowerLayer:count 0
scalar SingleCell_D2D.eNB.cellularNic.rlc.um sentPacketToLowerLayer:sum(packetBytes) 0
scalar SingleCell_D2D.eNB.cellularNic.rlc.um sentPacketToUpperLayer:count 0
scalar SingleCell_D2D.eNB.cellularNic.rlc.um sentPacketToUpperLayer:sum(packetBytes) 0
scalar SingleCell_D2D.eNB.cellularNic.rlc.um receivedPacketFromLowerLayer:count 0
scalar SingleCell_D2D.eNB.cellularNic.rlc.um receivedPacketFromLowerLayer:sum(packetBytes) 0
scalar SingleCell_D2D.eNB.cellularNic.rlc.um receivedPacketFromUpperLayer:count 0
scalar SingleCell_D2D.eNB.cellularNic.rlc.um receivedPacketFromUpperLayer:sum(packetBytes) 0
scalar SingleCell_D2D.eNB.cellularNic.rlc.am rlcPacketLossTotal:mean -nan
scalar SingleCell_D2D.eNB.cellularNic.rlc.am rlcCellThroughputUl:simu5g_rateavg -nan
scalar SingleCell_D2D.eNB.cellularNic.rlc.am rlcCellThroughputDl:simu5g_rateavg -nan
scalar SingleCell_D2D.eNB.cellularNic.rlc.am rlcPduThroughputUl:simu5g_rateavg -nan
scalar SingleCell_D2D.eNB.cellularNic.rlc.am rlcPduThroughputDl:simu5g_rateavg -nan
scalar SingleCell_D2D.eNB.cellularNic.rlc.am rlcPduDelayUl:mean -nan
scalar SingleCell_D2D.eNB.cellularNic.rlc.am rlcPduDelayDl:mean -nan
scalar SingleCell_D2D.eNB.cellularNic.rlc.am rlcThroughputUl:simu5g_rateavg -nan
scalar SingleCell_D2D.eNB.cellularNic.rlc.am rlcThroughputDl:simu5g_rateavg -nan
scalar SingleCell_D2D.eNB.cellularNic.rlc.am rlcDelayUl:mean -nan
scalar SingleCell_D2D.eNB.cellularNic.rlc.am rlcDelayDl:mean -nan
scalar SingleCell_D2D.eNB.cellularNic.rlc.am rlcPduPacketLossUl:mean -nan
scalar SingleCell_D2D.eNB.cellularNic.rlc.am rlcPduPacketLossDl:mean -nan
scalar SingleCell_D2D.eNB.cellularNic.rlc.am rlcPacketLossUl:mean -nan
scalar SingleCell_D2D.eNB.cellularNic.rlc.am rlcPacketLossDl:mean -nan
scalar SingleCell_D2D.eNB.cellularNic.rlc.am rlcCellPacketLossUl:mean -nan
scalar SingleCell_D2D.eNB.cellularNic.rlc.am rlcCellPacketLossDl:mean -nan
scalar SingleCell_D2D.eNB.cellularNic.mac avgServedBlocksUl:mean 29.7346
scalar SingleCell_D2D.eNB.cellularNic.mac avgServedBlocksDl:mean 0
scalar SingleCell_D2D.eNB.cellularNic.mac macCellPacketLossD2D:mean 0
scalar SingleCell_D2D.eNB.cellularNic.mac macCellThroughputD2D:simu5g_rateavg 1049768.5136281145
scalar SingleCell_D2D.eNB.cellularNic.mac harqTxAttemptsUl:mean -nan
scalar SingleCell_D2D.eNB.cellularNic.mac harqTxAttemptsDl:mean -nan
scalar SingleCell_D2D.eNB.cellularNic.mac harqErrorRate_4th_Ul:mean -nan
scalar SingleCell_D2D.eNB.cellularNic.mac harqErrorRate_4th_Dl:mean -nan
scalar SingleCell_D2D.eNB.cellularNic.mac harqErrorRate_3rd_Ul:mean -nan
scalar SingleCell_D2D.eNB.cellularNic.mac harqErrorRate_3rd_Dl:mean -nan
scalar SingleCell_D2D.eNB.cellularNic.mac harqErrorRate_2nd_Ul:mean -nan
scalar SingleCell_D2D.eNB.cellularNic.mac harqErrorRate_2nd_Dl:mean -nan
scalar SingleCell_D2D.eNB.cellularNic.mac harqErrorRate_1st_Ul:mean -nan
scalar SingleCell_D2D.eNB.cellularNic.mac harqErrorRate_1st_Dl:mean -nan
scalar SingleCell_D2D.eNB.cellularNic.mac harqErrorRateUl:mean -nan
scalar SingleCell_D2D.eNB.cellularNic.mac harqErrorRateDl:mean -nan
scalar SingleCell_D2D.eNB.cellularNic.mac macCellPacketLossUl:mean 0
scalar SingleCell_D2D.eNB.cellularNic.mac macCellPacketLossDl:mean -nan
scalar SingleCell_D2D.eNB.cellularNic.mac macPacketLossUl:mean -nan
scalar SingleCell_D2D.eNB.cellularNic.mac macPacketLossDl:mean -nan
scalar SingleCell_D2D.eNB.cellularNic.mac macThroughputUl:simu5g_rateavg -nan
scalar SingleCell_D2D.eNB.cellularNic.mac macThroughputDl:simu5g_rateavg -nan
scalar SingleCell_D2D.eNB.cellularNic.mac macDelayUl:mean -nan
scalar SingleCell_D2D.eNB.cellularNic.mac macDelayDl:mean -nan
scalar SingleCell_D2D.eNB.cellularNic.mac macCellThroughputUl:simu5g_rateavg 1049275.499438006
scalar SingleCell_D2D.eNB.cellularNic.mac macCellThroughputDl:simu5g_rateavg -nan
scalar SingleCell_D2D.eNB.cellularNic.mac sentPacketToLowerLayer:count 15856
scalar SingleCell_D2D.eNB.cellularNic.mac sentPacketToLowerLayer:sum(packetBytes) 15856
scalar SingleCell_D2D.eNB.cellularNic.mac sentPacketToUpperLayer:count 0
scalar SingleCell_D2D.eNB.cellularNic.mac sentPacketToUpperLayer:sum(packetBytes) 0
scalar SingleCell_D2D.eNB.cellularNic.mac receivedPacketFromLowerLayer:count 18077
scalar SingleCell_D2D.eNB.cellularNic.mac receivedPacketFromLowerLayer:sum(packetBytes) 21249
scalar SingleCell_D2D.eNB.cellularNic.mac receivedPacketFromUpperLayer:count 0
scalar SingleCell_D2D.eNB.cellularNic.mac receivedPacketFromUpperLayer:sum(packetBytes) 0
scalar SingleCell_D2D.eNB.cellularNic.mac macBufferOverFlowD2D:mean -nan
scalar SingleCell_D2D.eNB.cellularNic.mac macBufferOverFlowUl:mean -nan
scalar SingleCell_D2D.eNB.cellularNic.mac macBufferOverFlowDl:mean -nan
scalar SingleCell_D2D.eNB.cellularNic.channelModel[0] measuredSinrUl:mean -nan
scalar SingleCell_D2D.eNB.cellularNic.channelModel[0] measuredSinrDl:mean -nan
scalar SingleCell_D2D.eNB.cellularNic.channelModel[0] rcvdSinrD2D:mean -nan
scalar SingleCell_D2D.eNB.cellularNic.channelModel[0] rcvdSinrUl:mean -nan
scalar SingleCell_D2D.eNB.cellularNic.channelModel[0] rcvdSinrDl:mean -nan
scalar SingleCell_D2D.eNB.cellularNic packetDropInterfaceDown:count 0
scalar SingleCell_D2D.eNB.cellularNic packetDropInterfaceDown:sum(packetBytes) 0
scalar SingleCell_D2D.eNB.cellularNic packetDropNoCarrier:count 0
scalar SingleCell_D2D.eNB.cellularNic packetDropNoCarrier:sum(packetBytes) 0
scalar SingleCell_D2D.eNB.pppIf.queue queueLength:last 0
scalar SingleCell_D2D.eNB.pppIf.queue queueLength:max 0
scalar SingleCell_D2D.eNB.pppIf.queue queueLength:timeavg 0
scalar SingleCell_D2D.eNB.pppIf.queue queueBitLength:last 0
scalar SingleCell_D2D.eNB.pppIf.queue queueBitLength:max 0
scalar SingleCell_D2D.eNB.pppIf.queue queueBitLength:timeavg 0
scalar SingleCell_D2D.eNB.pppIf.queue outgoingPackets:count 0
scalar SingleCell_D2D.eNB.pppIf.queue outgoingPacketLengths:sum 0
scalar SingleCell_D2D.eNB.pppIf.queue incomingPackets:count 0
scalar SingleCell_D2D.eNB.pppIf.queue incomingPacketLengths:sum 0
scalar SingleCell_D2D.eNB.pppIf.queue droppedPacketsQueueOverflow:count 0
scalar SingleCell_D2D.eNB.pppIf.queue droppedPacketLengthsQueueOverflow:sum 0
scalar SingleCell_D2D.eNB.pppIf.ppp transmissionState:timeavg 0
scalar SingleCell_D2D.eNB.pppIf.ppp rxPkOk:count 0
scalar SingleCell_D2D.eNB.pppIf.ppp rxPkOk:sum(packetBytes) 0
scalar SingleCell_D2D.eNB.pppIf.ppp txPk:count 0
scalar SingleCell_D2D.eNB.pppIf.ppp txPk:sum(packetBytes) 0
scalar SingleCell_D2D.eNB.pppIf.ppp rcvdPkFromHl:count 0
scalar SingleCell_D2D.eNB.pppIf.ppp rcvdPkFromHl:sum(packetBytes) 0
scalar SingleCell_D2D.eNB.pppIf.ppp passedUpPk:count 0
scalar SingleCell_D2D.eNB.pppIf.ppp passedUpPk:sum(packetBytes) 0
scalar SingleCell_D2D.eNB.pppIf.ppp packetDropIncorrectlyReceived:count 0
scalar SingleCell_D2D.eNB.pppIf.ppp packetDropIncorrectlyReceived:sum(packetBytes) 0
scalar SingleCell_D2D.eNB.pppIf.ppp packetDropInterfaceDown:count 0
scalar SingleCell_D2D.eNB.pppIf.ppp packetDropInterfaceDown:sum(packetBytes) 0
scalar SingleCell_D2D.eNB.pppIf packetDropInterfaceDown:count 0
scalar SingleCell_D2D.eNB.pppIf packetDropInterfaceDown:sum(packetBytes) 0
scalar SingleCell_D2D.eNB.pppIf packetDropNoCarrier:count 0
scalar SingleCell_D2D.eNB.pppIf packetDropNoCarrier:sum(packetBytes) 0
scalar SingleCell_D2D.eNB.pppMEHostIf.queue queueLength:last 0
scalar SingleCell_D2D.eNB.pppMEHostIf.queue queueLength:max 0
scalar SingleCell_D2D.eNB.pppMEHostIf.queue queueLength:timeavg 0
scalar SingleCell_D2D.eNB.pppMEHostIf.queue queueBitLength:last 0
scalar SingleCell_D2D.eNB.pppMEHostIf.queue queueBitLength:max 0
scalar SingleCell_D2D.eNB.pppMEHostIf.queue queueBitLength:timeavg 0
scalar SingleCell_D2D.eNB.pppMEHostIf.queue outgoingPackets:count 0
scalar SingleCell_D2D.eNB.pppMEHostIf.queue outgoingPacketLengths:sum 0
scalar SingleCell_D2D.eNB.pppMEHostIf.queue incomingPackets:count 0
scalar SingleCell_D2D.eNB.pppMEHostIf.queue incomingPacketLengths:sum 0
scalar SingleCell_D2D.eNB.pppMEHostIf.queue droppedPacketsQueueOverflow:count 0
scalar SingleCell_D2D.eNB.pppMEHostIf.queue droppedPacketLengthsQueueOverflow:sum 0
scalar SingleCell_D2D.eNB.pppMEHostIf.ppp transmissionState:timeavg 0
scalar SingleCell_D2D.eNB.pppMEHostIf.ppp rxPkOk:count 0
scalar SingleCell_D2D.eNB.pppMEHostIf.ppp rxPkOk:sum(packetBytes) 0
scalar SingleCell_D2D.eNB.pppMEHostIf.ppp txPk:count 0
scalar SingleCell_D2D.eNB.pppMEHostIf.ppp txPk:sum(packetBytes) 0
scalar SingleCell_D2D.eNB.pppMEHostIf.ppp rcvdPkFromHl:count 0
scalar SingleCell_D2D.eNB.pppMEHostIf.ppp rcvdPkFromHl:sum(packetBytes) 0
scalar SingleCell_D2D.eNB.pppMEHostIf.ppp passedUpPk:count 0
scalar SingleCell_D2D.eNB.pppMEHostIf.ppp passedUpPk:sum(packetBytes) 0
scalar SingleCell_D2D.eNB.pppMEHostIf.ppp packetDropIncorrectlyReceived:count 0
scalar SingleCell_D2D.eNB.pppMEHostIf.ppp packetDropIncorrectlyReceived:sum(packetBytes) 0
scalar SingleCell_D2D.eNB.pppMEHostIf.ppp packetDropInterfaceDown:count 0
scalar SingleCell_D2D.eNB.pppMEHostIf.ppp packetDropInterfaceDown:sum(packetBytes) 0
scalar SingleCell_D2D.eNB.pppMEHostIf packetDropInterfaceDown:count 0
scalar SingleCell_D2D.eNB.pppMEHostIf packetDropInterfaceDown:sum(packetBytes) 0
scalar SingleCell_D2D.eNB.pppMEHostIf packetDropNoCarrier:count 0
scalar SingleCell_D2D.eNB.pppMEHostIf packetDropNoCarrier:sum(packetBytes) 0
scalar SingleCell_D2D.eNB.ipv4.ip packetDropAddressResolutionFailed:count 0
scalar SingleCell_D2D.eNB.ipv4.ip packetDropAddressResolutionFailed:sum(packetBytes) 0
scalar SingleCell_D2D.eNB.ipv4.ip packetDropHopLimitReached:count 0
scalar SingleCell_D2D.eNB.ipv4.ip packetDropHopLimitReached:sum(packetBytes) 0
scalar SingleCell_D2D.eNB.ipv4.ip packetDropForwardingDisabled:count 0
scalar SingleCell_D2D.eNB.ipv4.ip packetDropForwardingDisabled:sum(packetBytes) 0
scalar SingleCell_D2D.eNB.ipv4.ip packetDropNoInterfaceFound:count 0
scalar SingleCell_D2D.eNB.ipv4.ip packetDropNoInterfaceFound:sum(packetBytes) 0
scalar SingleCell_D2D.eNB.ipv4.ip packetDropNoRouteFound:count 0
scalar SingleCell_D2D.eNB.ipv4.ip packetDropNoRouteFound:sum(packetBytes) 0
scalar SingleCell_D2D.eNB.ipv4.ip packetDropUndefined:count 0
scalar SingleCell_D2D.eNB.ipv4.ip packetDropUndefined:sum(packetBytes) 0
scalar SingleCell_D2D.eNB.ipv4.arp arpResolutionFailed:count 0
scalar SingleCell_D2D.eNB.ipv4.arp arpResolutionCompleted:count 0
scalar SingleCell_D2D.eNB.ipv4.arp arpResolutionInitiated:count 0
scalar SingleCell_D2D.eNB.ipv4.arp arpReplySent:count 0
scalar SingleCell_D2D.eNB.ipv4.arp arpReplySent:sum(packetBytes) 0
scalar SingleCell_D2D.eNB.ipv4.arp arpRequestSent:count 0
scalar SingleCell_D2D.eNB.ipv4.arp arpRequestSent:sum(packetBytes) 0
scalar SingleCell_D2D.eNB.udp packetReceived:count 0
scalar SingleCell_D2D.eNB.udp packetReceived:sum(packetBytes) 0
scalar SingleCell_D2D.eNB.udp packetSent:count 0
scalar SingleCell_D2D.eNB.udp packetSent:sum(packetBytes) 0
scalar SingleCell_D2D.eNB.udp passedUpPk:count 0
scalar SingleCell_D2D.eNB.udp droppedPkWrongPort:count 0
scalar SingleCell_D2D.eNB.udp droppedPkBadChecksum:count 0
scalar SingleCell_D2D.ueD2DTx[0].lo[0].lo rcvdPkFromHl:count 0
scalar SingleCell_D2D.ueD2DTx[0].lo[0].lo rcvdPkFromHl:sum(packetBytes) 0
scalar SingleCell_D2D.ueD2DTx[0].lo[0].lo passedUpPk:count 0
scalar SingleCell_D2D.ueD2DTx[0].lo[0].lo passedUpPk:sum(packetBytes) 0
scalar SingleCell_D2D.ueD2DTx[0].lo[0] packetDropInterfaceDown:count 0
scalar SingleCell_D2D.ueD2DTx[0].lo[0] packetDropInterfaceDown:sum(packetBytes) 0
scalar SingleCell_D2D.ueD2DTx[0].lo[0] packetDropNoCarrier:count 0
scalar SingleCell_D2D.ueD2DTx[0].lo[0] packetDropNoCarrier:sum(packetBytes) 0
scalar SingleCell_D2D.ueD2DTx[0].cellularNic.pdcp sentPacketToLowerLayer:count 2145
scalar SingleCell_D2D.ueD2DTx[0].cellularNic.pdcp sentPacketToLowerLayer:sum(packetBytes) 1236597
scalar SingleCell_D2D.ueD2DTx[0].cellularNic.pdcp sentPacketToUpperLayer:count 2130
scalar SingleCell_D2D.ueD2DTx[0].cellularNic.pdcp sentPacketToUpperLayer:sum(packetBytes) 85204
scalar SingleCell_D2D.ueD2DTx[0].cellularNic.pdcp receivedPacketFromLowerLayer:count 2130
scalar SingleCell_D2D.ueD2DTx[0].cellularNic.pdcp receivedPacketFromLowerLayer:sum(packetBytes) 87334
scalar SingleCell_D2D.ueD2DTx[0].cellularNic.pdcp receivedPacketFromUpperLayer:count 2145
scalar SingleCell_D2D.ueD2DTx[0].cellularNic.pdcp receivedPacketFromUpperLayer:sum(packetBytes) 1234452
scalar SingleCell_D2D.ueD2DTx[0].cellularNic.rlc.tm rlcPacketLossUl:mean -nan
scalar SingleCell_D2D.ueD2DTx[0].cellularNic.rlc.tm rlcPacketLossUl:sum 0
scalar SingleCell_D2D.ueD2DTx[0].cellularNic.rlc.tm rlcPacketLossDl:mean -nan
scalar SingleCell_D2D.ueD2DTx[0].cellularNic.rlc.tm rlcPacketLossDl:sum 0
scalar SingleCell_D2D.ueD2DTx[0].cellularNic.rlc.tm sentPacketToLowerLayer:count 0
scalar SingleCell_D2D.ueD2DTx[0].cellularNic.rlc.tm sentPacketToLowerLayer:sum(packetBytes) 0
scalar SingleCell_D2D.ueD2DTx[0].cellularNic.rlc.tm sentPacketToUpperLayer:count 0
scalar SingleCell_D2D.ueD2DTx[0].cellularNic.rlc.tm sentPacketToUpperLayer:sum(packetBytes) 0
scalar SingleCell_D2D.ueD2DTx[0].cellularNic.rlc.tm receivedPacketFromLowerLayer:count 0
scalar SingleCell_D2D.ueD2DTx[0].cellularNic.rlc.tm receivedPacketFromLowerLayer:sum(packetBytes) 0
scalar SingleCell_D2D.ueD2DTx[0].cellularNic.rlc.tm receivedPacketFromUpperLayer:count 0
scalar SingleCell_D2D.ueD2DTx[0].cellularNic.rlc.tm receivedPacketFromUpperLayer:sum(packetBytes) 0
scalar SingleCell_D2D.ueD2DTx[0].cellularNic.rlc.um rlcCellThroughputD2D:simu5g_rateavg -nan
scalar SingleCell_D2D.ueD2DTx[0].cellularNic.rlc.um rlcPduThroughputD2D:simu5g_rateavg 0
scalar SingleCell_D2D.ueD2DTx[0].cellularNic.rlc.um rlcPduDelayD2D:mean 0.0040000000000000027
scalar SingleCell_D2D.ueD2DTx[0].cellularNic.rlc.um rlcThroughputD2D:simu5g_rateavg 13685.071009991614
scalar SingleCell_D2D.ueD2DTx[0].cellularNic.rlc.um rlcDelayD2D:mean 0.014753990610328688
scalar SingleCell_D2D.ueD2DTx[0].cellularNic.rlc.um rlcCellThroughputUl:simu5g_rateavg -nan
scalar SingleCell_D2D.ueD2DTx[0].cellularNic.rlc.um rlcCellThroughputDl:simu5g_rateavg -nan
scalar SingleCell_D2D.ueD2DTx[0].cellularNic.rlc.um rlcPduThroughputUl:simu5g_rateavg -nan
scalar SingleCell_D2D.ueD2DTx[0].cellularNic.rlc.um rlcPduThroughputDl:simu5g_rateavg -nan
scalar SingleCell_D2D.ueD2DTx[0].cellularNic.rlc.um rlcPduDelayUl:mean -nan
scalar SingleCell_D2D.ueD2DTx[0].cellularNic.rlc.um rlcPduDelayDl:mean -nan
scalar SingleCell_D2D.ueD2DTx[0].cellularNic.rlc.um rlcThroughputUl:simu5g_rateavg -nan
scalar SingleCell_D2D.ueD2DTx[0].cellularNic.rlc.um rlcThroughputDl:simu5g_rateavg -nan
scalar SingleCell_D2D.ueD2DTx[0].cellularNic.rlc.um rlcDelayUl:mean -nan
scalar SingleCell_D2D.ueD2DTx[0].cellularNic.rlc.um rlcDelayDl:mean -nan
scalar SingleCell_D2D.ueD2DTx[0].cellularNic.rlc.um sentPacketToLowerLayer:count 380
scalar SingleCell_D2D.ueD2DTx[0].cellularNic.rlc.um sentPacketToLowerLayer:sum(packetBytes) 1237357
scalar SingleCell_D2D.ueD2DTx[0].cellularNic.rlc.um sentPacketToUpperLayer:count 2130
scalar SingleCell_D2D.ueD2DTx[0].cellularNic.rlc.um sentPacketToUpperLayer:sum(packetBytes) 87334
scalar SingleCell_D2D.ueD2DTx[0].cellularNic.rlc.um receivedPacketFromLowerLayer:count 210
scalar SingleCell_D2D.ueD2DTx[0].cellularNic.rlc.um receivedPacketFromLowerLayer:sum(packetBytes) 87754
scalar SingleCell_D2D.ueD2DTx[0].cellularNic.rlc.um receivedPacketFromUpperLayer:count 2145
scalar SingleCell_D2D.ueD2DTx[0].cellularNic.rlc.um receivedPacketFromUpperLayer:sum(packetBytes) 1236597
scalar SingleCell_D2D.ueD2DTx[0].cellularNic.rlc.am rlcPacketLossTotal:mean -nan
scalar SingleCell_D2D.ueD2DTx[0].cellularNic.rlc.am rlcCellThroughputUl:simu5g_rateavg -nan
scalar SingleCell_D2D.ueD2DTx[0].cellularNic.rlc.am rlcCellThroughputDl:simu5g_rateavg -nan
scalar SingleCell_D2D.ueD2DTx[0].cellularNic.rlc.am rlcPduThroughputUl:simu5g_rateavg -nan
scalar SingleCell_D2D.ueD2DTx[0].cellularNic.rlc.am rlcPduThroughputDl:simu5g_rateavg -nan
scalar SingleCell_D2D.ueD2DTx[0].cellularNic.rlc.am rlcPduDelayUl:mean -nan
scalar SingleCell_D2D.ueD2DTx[0].cellularNic.rlc.am rlcPduDelayDl:mean -nan
scalar SingleCell_D2D.ueD2DTx[0].cellularNic.rlc.am rlcThroughputUl:simu5g_rateavg -nan
scalar SingleCell_D2D.ueD2DTx[0].cellularNic.rlc.am rlcThroughputDl:simu5g_rateavg -nan
scalar SingleCell_D2D.ueD2DTx[0].cellularNic.rlc.am rlcDelayUl:mean -nan
scalar SingleCell_D2D.ueD2DTx[0].cellularNic.rlc.am rlcDelayDl:mean -nan
scalar SingleCell_D2D.ueD2DTx[0].cellularNic.rlc.am rlcPduPacketLossUl:mean -nan
scalar SingleCell_D2D.ueD2DTx[0].cellularNic.rlc.am rlcPduPacketLossDl:mean -nan
scalar SingleCell_D2D.ueD2DTx[0].cellularNic.rlc.am rlcPacketLossUl:mean -nan
scalar SingleCell_D2D.ueD2DTx[0].cellularNic.rlc.am rlcPacketLossDl:mean -nan
scalar SingleCell_D2D.ueD2DTx[0].cellularNic.rlc.am rlcCellPacketLossUl:mean -nan
scalar SingleCell_D2D.ueD2DTx[0].cellularNic.rlc.am rlcCellPacketLossDl:mean -nan
scalar SingleCell_D2D.ueD2DTx[0].cellularNic.mac harqErrorRate_4th_D2D:mean -nan
scalar SingleCell_D2D.ueD2DTx[0].cellularNic.mac harqErrorRate_3rd_D2D:mean -nan
scalar SingleCell_D2D.ueD2DTx[0].cellularNic.mac harqErrorRate_2nd_D2D:mean -nan
scalar SingleCell_D2D.ueD2DTx[0].cellularNic.mac harqErrorRate_1st_D2D:mean 0
scalar SingleCell_D2D.ueD2DTx[0].cellularNic.mac harqErrorRateD2D:mean 0
scalar SingleCell_D2D.ueD2DTx[0].cellularNic.mac macPacketLossD2D:mean 0
scalar SingleCell_D2D.ueD2DTx[0].cellularNic.mac macDelayD2D:mean 0.0040000000000000027
scalar SingleCell_D2D.ueD2DTx[0].cellularNic.mac macThroughputD2D:simu5g_rateavg 14066.796462864953
scalar SingleCell_D2D.ueD2DTx[0].cellularNic.mac harqTxAttemptsUl:mean 1
scalar SingleCell_D2D.ueD2DTx[0].cellularNic.mac harqTxAttemptsDl:mean -nan
scalar SingleCell_D2D.ueD2DTx[0].cellularNic.mac harqErrorRate_4th_Ul:mean -nan
scalar SingleCell_D2D.ueD2DTx[0].cellularNic.mac harqErrorRate_4th_Dl:mean -nan
scalar SingleCell_D2D.ueD2DTx[0].cellularNic.mac harqErrorRate_3rd_Ul:mean -nan
scalar SingleCell_D2D.ueD2DTx[0].cellularNic.mac harqErrorRate_3rd_Dl:mean -nan
scalar SingleCell_D2D.ueD2DTx[0].cellularNic.mac harqErrorRate_2nd_Ul:mean -nan
scalar SingleCell_D2D.ueD2DTx[0].cellularNic.mac harqErrorRate_2nd_Dl:mean -nan
scalar SingleCell_D2D.ueD2DTx[0].cellularNic.mac harqErrorRate_1st_Ul:mean 0
scalar SingleCell_D2D.ueD2DTx[0].cellularNic.mac harqErrorRate_1st_Dl:mean -nan
scalar SingleCell_D2D.ueD2DTx[0].cellularNic.mac harqErrorRateUl:mean 0
scalar SingleCell_D2D.ueD2DTx[0].cellularNic.mac harqErrorRateDl:mean -nan
scalar SingleCell_D2D.ueD2DTx[0].cellularNic.mac macCellPacketLossUl:mean -nan
scalar SingleCell_D2D.ueD2DTx[0].cellularNic.mac macCellPacketLossDl:mean -nan
scalar SingleCell_D2D.ueD2DTx[0].cellularNic.mac macPacketLossUl:mean 0
scalar SingleCell_D2D.ueD2DTx[0].cellularNic.mac macPacketLossDl:mean -nan
scalar SingleCell_D2D.ueD2DTx[0].cellularNic.mac macThroughputUl:simu5g_rateavg 111.82653636981733
scalar SingleCell_D2D.ueD2DTx[0].cellularNic.mac macThroughputDl:simu5g_rateavg -nan
scalar SingleCell_D2D.ueD2DTx[0].cellularNic.mac macDelayUl:mean 0.0040000000000000027
scalar SingleCell_D2D.ueD2DTx[0].cellularNic.mac macDelayDl:mean -nan
scalar SingleCell_D2D.ueD2DTx[0].cellularNic.mac macCellThroughputUl:simu5g_rateavg -nan
scalar SingleCell_D2D.ueD2DTx[0].cellularNic.mac macCellThroughputDl:simu5g_rateavg -nan
scalar SingleCell_D2D.ueD2DTx[0].cellularNic.mac rcvdD2DModeSwitchNotification:count 0
scalar SingleCell_D2D.ueD2DTx[0].cellularNic.mac sentPacketToLowerLayer:count 1488
scalar SingleCell_D2D.ueD2DTx[0].cellularNic.mac sentPacketToLowerLayer:sum(packetBytes) 1239546
scalar SingleCell_D2D.ueD2DTx[0].cellularNic.mac sentPacketToUpperLayer:count 590
scalar SingleCell_D2D.ueD2DTx[0].cellularNic.mac sentPacketToUpperLayer:sum(packetBytes) 88134
scalar SingleCell_D2D.ueD2DTx[0].cellularNic.mac receivedPacketFromLowerLayer:count 2361
scalar SingleCell_D2D.ueD2DTx[0].cellularNic.mac receivedPacketFromLowerLayer:sum(packetBytes) 90325
scalar SingleCell_D2D.ueD2DTx[0].cellularNic.mac receivedPacketFromUpperLayer:count 2525
scalar SingleCell_D2D.ueD2DTx[0].cellularNic.mac receivedPacketFromUpperLayer:sum(packetBytes) 2473954
scalar SingleCell_D2D.ueD2DTx[0].cellularNic.mac macBufferOverFlowD2D:mean -nan
scalar SingleCell_D2D.ueD2DTx[0].cellularNic.mac macBufferOverFlowUl:mean -nan
scalar SingleCell_D2D.ueD2DTx[0].cellularNic.mac macBufferOverFlowDl:mean -nan
scalar SingleCell_D2D.ueD2DTx[0].cellularNic.phy distance:mean -nan
scalar SingleCell_D2D.ueD2DTx[0].cellularNic.phy averageCqiD2D:mean 15
scalar SingleCell_D2D.ueD2DTx[0].cellularNic.phy averageCqiUl:mean 15
scalar SingleCell_D2D.ueD2DTx[0].cellularNic.phy averageCqiUl:count 321
scalar SingleCell_D2D.ueD2DTx[0].cellularNic.phy averageCqiDl:mean -nan
scalar SingleCell_D2D.ueD2DTx[0].cellularNic.phy averageCqiDl:count 0
scalar SingleCell_D2D.ueD2DTx[0].cellularNic.channelModel[0] measuredSinrUl:mean 57.056948256397121
scalar SingleCell_D2D.ueD2DTx[0].cellularNic.channelModel[0] measuredSinrDl:mean 66.826534357378165
scalar SingleCell_D2D.ueD2DTx[0].cellularNic.channelModel[0] rcvdSinrD2D:mean -nan
scalar SingleCell_D2D.ueD2DTx[0].cellularNic.channelModel[0] rcvdSinrUl:mean 57.943168758987909
scalar SingleCell_D2D.ueD2DTx[0].cellularNic.channelModel[0] rcvdSinrDl:mean -nan
scalar SingleCell_D2D.ueD2DTx[0].cellularNic packetDropInterfaceDown:count 0
scalar SingleCell_D2D.ueD2DTx[0].cellularNic packetDropInterfaceDown:sum(packetBytes) 0
scalar SingleCell_D2D.ueD2DTx[0].cellularNic packetDropNoCarrier:count 0
scalar SingleCell_D2D.ueD2DTx[0].cellularNic packetDropNoCarrier:sum(packetBytes) 0
scalar SingleCell_D2D.ueD2DTx[0].encap pauseSent:count 0
scalar SingleCell_D2D.ueD2DTx[0].encap pauseSent:sum 0
scalar SingleCell_D2D.ueD2DTx[0].encap decapPk:count 0
scalar SingleCell_D2D.ueD2DTx[0].encap decapPk:sum(packetBytes) 0
scalar SingleCell_D2D.ueD2DTx[0].encap encapPk:count 0
scalar SingleCell_D2D.ueD2DTx[0].encap encapPk:sum(packetBytes) 0
scalar SingleCell_D2D.ueD2DTx[0].ipv4.ip packetDropAddressResolutionFailed:count 0
scalar SingleCell_D2D.ueD2DTx[0].ipv4.ip packetDropAddressResolutionFailed:sum(packetBytes) 0
scalar SingleCell_D2D.ueD2DTx[0].ipv4.ip packetDropHopLimitReached:count 0
scalar SingleCell_D2D.ueD2DTx[0].ipv4.ip packetDropHopLimitReached:sum(packetBytes) 0
scalar SingleCell_D2D.ueD2DTx[0].ipv4.ip packetDropForwardingDisabled:count 0
scalar SingleCell_D2D.ueD2DTx[0].ipv4.ip packetDropForwardingDisabled:sum(packetBytes) 0
scalar SingleCell_D2D.ueD2DTx[0].ipv4.ip packetDropNoInterfaceFound:count 0
scalar SingleCell_D2D.ueD2DTx[0].ipv4.ip packetDropNoInterfaceFound:sum(packetBytes) 0
scalar SingleCell_D2D.ueD2DTx[0].ipv4.ip packetDropNoRouteFound:count 0
scalar SingleCell_D2D.ueD2DTx[0].ipv4.ip packetDropNoRouteFound:sum(packetBytes) 0
scalar SingleCell_D2D.ueD2DTx[0].ipv4.ip packetDropUndefined:count 0
scalar SingleCell_D2D.ueD2DTx[0].ipv4.ip packetDropUndefined:sum(packetBytes) 0
scalar SingleCell_D2D.ueD2DTx[0].ipv4.arp arpResolutionFailed:count 0
scalar SingleCell_D2D.ueD2DTx[0].ipv4.arp arpResolutionCompleted:count 0
scalar SingleCell_D2D.ueD2DTx[0].ipv4.arp arpResolutionInitiated:count 0
scalar SingleCell_D2D.ueD2DTx[0].ipv4.arp arpReplySent:count 0
scalar SingleCell_D2D.ueD2DTx[0].ipv4.arp arpReplySent:sum(packetBytes) 0
scalar SingleCell_D2D.ueD2DTx[0].ipv4.arp arpRequestSent:count 0
scalar SingleCell_D2D.ueD2DTx[0].ipv4.arp arpRequestSent:sum(packetBytes) 0
scalar SingleCell_D2D.ueD2DTx[0].udp packetReceived:count 0
scalar SingleCell_D2D.ueD2DTx[0].udp packetReceived:sum(packetBytes) 0
scalar SingleCell_D2D.ueD2DTx[0].udp packetSent:count 0
scalar SingleCell_D2D.ueD2DTx[0].udp packetSent:sum(packetBytes) 0
scalar SingleCell_D2D.ueD2DTx[0].udp passedUpPk:count 0
scalar SingleCell_D2D.ueD2DTx[0].udp droppedPkWrongPort:count 0
scalar SingleCell_D2D.ueD2DTx[0].udp droppedPkBadChecksum:count 0
scalar SingleCell_D2D.ueD2DTx[0].app[0] bytesRcvd 0
scalar SingleCell_D2D.ueD2DTx[0].app[0] bytesSent 1073741824
scalar SingleCell_D2D.ueD2DTx[0].app[0] packetReceived:count 0
scalar SingleCell_D2D.ueD2DTx[0].app[0] packetReceived:sum(packetBytes) 0
scalar SingleCell_D2D.ueD2DTx[0].app[0] packetSent:count 1
scalar SingleCell_D2D.ueD2DTx[0].app[0] packetSent:sum(packetBytes) 1073741824
scalar SingleCell_D2D.ueD2DTx[1].lo[0].lo rcvdPkFromHl:count 0
scalar SingleCell_D2D.ueD2DTx[1].lo[0].lo rcvdPkFromHl:sum(packetBytes) 0
scalar SingleCell_D2D.ueD2DTx[1].lo[0].lo passedUpPk:count 0
scalar SingleCell_D2D.ueD2DTx[1].lo[0].lo passedUpPk:sum(packetBytes) 0
scalar SingleCell_D2D.ueD2DTx[1].lo[0] packetDropInterfaceDown:count 0
scalar SingleCell_D2D.ueD2DTx[1].lo[0] packetDropInterfaceDown:sum(packetBytes) 0
scalar SingleCell_D2D.ueD2DTx[1].lo[0] packetDropNoCarrier:count 0
scalar SingleCell_D2D.ueD2DTx[1].lo[0] packetDropNoCarrier:sum(packetBytes) 0
scalar SingleCell_D2D.ueD2DTx[1].cellularNic.pdcp sentPacketToLowerLayer:count 2159
scalar SingleCell_D2D.ueD2DTx[1].cellularNic.pdcp sentPacketToLowerLayer:sum(packetBytes) 1244675
scalar SingleCell_D2D.ueD2DTx[1].cellularNic.pdcp sentPacketToUpperLayer:count 2144
scalar SingleCell_D2D.ueD2DTx[1].cellularNic.pdcp sentPacketToUpperLayer:sum(packetBytes) 85764
scalar SingleCell_D2D.ueD2DTx[1].cellularNic.pdcp receivedPacketFromLowerLayer:count 2144
scalar SingleCell_D2D.ueD2DTx[1].cellularNic.pdcp receivedPacketFromLowerLayer:sum(packetBytes) 87908
scalar SingleCell_D2D.ueD2DTx[1].cellularNic.pdcp receivedPacketFromUpperLayer:count 2159
scalar SingleCell_D2D.ueD2DTx[1].cellularNic.pdcp receivedPacketFromUpperLayer:sum(packetBytes) 1242516
scalar SingleCell_D2D.ueD2DTx[1].cellularNic.rlc.tm rlcPacketLossUl:mean -nan
scalar SingleCell_D2D.ueD2DTx[1].cellularNic.rlc.tm rlcPacketLossUl:sum 0
scalar SingleCell_D2D.ueD2DTx[1].cellularNic.rlc.tm rlcPacketLossDl:mean -nan
scalar SingleCell_D2D.ueD2DTx[1].cellularNic.rlc.tm rlcPacketLossDl:sum 0
scalar SingleCell_D2D.ueD2DTx[1].cellularNic.rlc.tm sentPacketToLowerLayer:count 0
scalar SingleCell_D2D.ueD2DTx[1].cellularNic.rlc.tm sentPacketToLowerLayer:sum(packetBytes) 0
scalar SingleCell_D2D.ueD2DTx[1].cellularNic.rlc.tm sentPacketToUpperLayer:count 0
scalar SingleCell_D2D.ueD2DTx[1].cellularNic.rlc.tm sentPacketToUpperLayer:sum(packetBytes) 0
scalar SingleCell_D2D.ueD2DTx[1].cellularNic.rlc.tm receivedPacketFromLowerLayer:count 0
scalar SingleCell_D2D.ueD2DTx[1].cellularNic.rlc.tm receivedPacketFromLowerLayer:sum(packetBytes) 0
scalar SingleCell_D2D.ueD2DTx[1].cellularNic.rlc.tm receivedPacketFromUpperLayer:count 0
scalar SingleCell_D2D.ueD2DTx[1].cellularNic.rlc.tm receivedPacketFromUpperLayer:sum(packetBytes) 0
scalar SingleCell_D2D.ueD2DTx[1].cellularNic.rlc.um rlcCellThroughputD2D:simu5g_rateavg -nan
scalar SingleCell_D2D.ueD2DTx[1].cellularNic.rlc.um rlcPduThroughputD2D:simu5g_rateavg 0
scalar SingleCell_D2D.ueD2DTx[1].cellularNic.rlc.um rlcPduDelayD2D:mean 0.0040000000000000027
scalar SingleCell_D2D.ueD2DTx[1].cellularNic.rlc.um rlcThroughputD2D:simu5g_rateavg 13951.438055029563
scalar SingleCell_D2D.ueD2DTx[1].cellularNic.rlc.um rlcDelayD2D:mean 0.014569496268656725
scalar SingleCell_D2D.ueD2DTx[1].cellularNic.rlc.um rlcCellThroughputUl:simu5g_rateavg -nan
scalar SingleCell_D2D.ueD2DTx[1].cellularNic.rlc.um rlcCellThroughputDl:simu5g_rateavg -nan
scalar SingleCell_D2D.ueD2DTx[1].cellularNic.rlc.um rlcPduThroughputUl:simu5g_rateavg -nan
scalar SingleCell_D2D.ueD2DTx[1].cellularNic.rlc.um rlcPduThroughputDl:simu5g_rateavg -nan
scalar SingleCell_D2D.ueD2DTx[1].cellularNic.rlc.um rlcPduDelayUl:mean -nan
scalar SingleCell_D2D.ueD2DTx[1].cellularNic.rlc.um rlcPduDelayDl:mean -nan
scalar SingleCell_D2D.ueD2DTx[1].cellularNic.rlc.um rlcThroughputUl:simu5g_rateavg -nan
scalar SingleCell_D2D.ueD2DTx[1].cellularNic.rlc.um rlcThroughputDl:simu5g_rateavg -nan
scalar SingleCell_D2D.ueD2DTx[1].cellularNic.rlc.um rlcDelayUl:mean -nan
scalar SingleCell_D2D.ueD2DTx[1].cellularNic.rlc.um rlcDelayDl:mean -nan
scalar SingleCell_D2D.ueD2DTx[1].cellularNic.rlc.um sentPacketToLowerLayer:count 392
scalar SingleCell_D2D.ueD2DTx[1].cellularNic.rlc.um sentPacketToLowerLayer:sum(packetBytes) 1245459
scalar SingleCell_D2D.ueD2DTx[1].cellularNic.rlc.um sentPacketToUpperLayer:count 2144
scalar SingleCell_D2D.ueD2DTx[1].cellularNic.rlc.um sentPacketToUpperLayer:sum(packetBytes) 87908
scalar SingleCell_D2D.ueD2DTx[1].cellularNic.rlc.um receivedPacketFromLowerLayer:count 204
scalar SingleCell_D2D.ueD2DTx[1].cellularNic.rlc.um receivedPacketFromLowerLayer:sum(packetBytes) 88316
scalar SingleCell_D2D.ueD2DTx[1].cellularNic.rlc.um receivedPacketFromUpperLayer:count 2159
scalar SingleCell_D2D.ueD2DTx[1].cellularNic.rlc.um receivedPacketFromUpperLayer:sum(packetBytes) 1244675
scalar SingleCell_D2D.ueD2DTx[1].cellularNic.rlc.am rlcPacketLossTotal:mean -nan
scalar SingleCell_D2D.ueD2DTx[1].cellularNic.rlc.am rlcCellThroughputUl:simu5g_rateavg -nan
scalar SingleCell_D2D.ueD2DTx[1].cellularNic.rlc.am rlcCellThroughputDl:simu5g_rateavg -nan
scalar SingleCell_D2D.ueD2DTx[1].cellularNic.rlc.am rlcPduThroughputUl:simu5g_rateavg -nan
scalar SingleCell_D2D.ueD2DTx[1].cellularNic.rlc.am rlcPduThroughputDl:simu5g_rateavg -nan
scalar SingleCell_D2D.ueD2DTx[1].cellularNic.rlc.am rlcPduDelayUl:mean -nan
scalar SingleCell_D2D.ueD2DTx[1].cellularNic.rlc.am rlcPduDelayDl:mean -nan
scalar SingleCell_D2D.ueD2DTx[1].cellularNic.rlc.am rlcThroughputUl:simu5g_rateavg -nan
scalar SingleCell_D2D.ueD2DTx[1].cellularNic.rlc.am rlcThroughputDl:simu5g_rateavg -nan
scalar SingleCell_D2D.ueD2DTx[1].cellularNic.rlc.am rlcDelayUl:mean -nan
scalar SingleCell_D2D.ueD2DTx[1].cellularNic.rlc.am rlcDelayDl:mean -nan
scalar SingleCell_D2D.ueD2DTx[1].cellularNic.rlc.am rlcPduPacketLossUl:mean -nan
scalar SingleCell_D2D.ueD2DTx[1].cellularNic.rlc.am rlcPduPacketLossDl:mean -nan
scalar SingleCell_D2D.ueD2DTx[1].cellularNic.rlc.am rlcPacketLossUl:mean -nan
scalar SingleCell_D2D.ueD2DTx[1].cellularNic.rlc.am rlcPacketLossDl:mean -nan
scalar SingleCell_D2D.ueD2DTx[1].cellularNic.rlc.am rlcCellPacketLossUl:mean -nan
scalar SingleCell_D2D.ueD2DTx[1].cellularNic.rlc.am rlcCellPacketLossDl:mean -nan
scalar SingleCell_D2D.ueD2DTx[1].cellularNic.mac harqErrorRate_4th_D2D:mean -nan
scalar SingleCell_D2D.ueD2DTx[1].cellularNic.mac harqErrorRate_3rd_D2D:mean -nan
scalar SingleCell_D2D.ueD2DTx[1].cellularNic.mac harqErrorRate_2nd_D2D:mean -nan
scalar SingleCell_D2D.ueD2DTx[1].cellularNic.mac harqErrorRate_1st_D2D:mean 0
scalar SingleCell_D2D.ueD2DTx[1].cellularNic.mac harqErrorRateD2D:mean 0
scalar SingleCell_D2D.ueD2DTx[1].cellularNic.mac macPacketLossD2D:mean 0
scalar SingleCell_D2D.ueD2DTx[1].cellularNic.mac macDelayD2D:mean 0.0040000000000000027
scalar SingleCell_D2D.ueD2DTx[1].cellularNic.mac macThroughputD2D:simu5g_rateavg 14343.590145951011
scalar SingleCell_D2D.ueD2DTx[1].cellularNic.mac harqTxAttemptsUl:mean 1
scalar SingleCell_D2D.ueD2DTx[1].cellularNic.mac harqTxAttemptsDl:mean -nan
scalar SingleCell_D2D.ueD2DTx[1].cellularNic.mac harqErrorRate_4th_Ul:mean -nan
scalar SingleCell_D2D.ueD2DTx[1].cellularNic.mac harqErrorRate_4th_Dl:mean -nan
scalar SingleCell_D2D.ueD2DTx[1].cellularNic.mac harqErrorRate_3rd_Ul:mean -nan
scalar SingleCell_D2D.ueD2DTx[1].cellularNic.mac harqErrorRate_3rd_Dl:mean -nan
scalar SingleCell_D2D.ueD2DTx[1].cellularNic.mac harqErrorRate_2nd_Ul:mean -nan
scalar SingleCell_D2D.ueD2DTx[1].cellularNic.mac harqErrorRate_2nd_Dl:mean -nan
scalar SingleCell_D2D.ueD2DTx[1].cellularNic.mac harqErrorRate_1st_Ul:mean 0
scalar SingleCell_D2D.ueD2DTx[1].cellularNic.mac harqErrorRate_1st_Dl:mean -nan
scalar SingleCell_D2D.ueD2DTx[1].cellularNic.mac harqErrorRateUl:mean 0
scalar SingleCell_D2D.ueD2DTx[1].cellularNic.mac harqErrorRateDl:mean -nan
scalar SingleCell_D2D.ueD2DTx[1].cellularNic.mac macCellPacketLossUl:mean -nan
scalar SingleCell_D2D.ueD2DTx[1].cellularNic.mac macCellPacketLossDl:mean -nan
scalar SingleCell_D2D.ueD2DTx[1].cellularNic.mac macPacketLossUl:mean 0
scalar SingleCell_D2D.ueD2DTx[1].cellularNic.mac macPacketLossDl:mean -nan
scalar SingleCell_D2D.ueD2DTx[1].cellularNic.mac macThroughputUl:simu5g_rateavg 116.49533771684361
scalar SingleCell_D2D.ueD2DTx[1].cellularNic.mac macThroughputDl:simu5g_rateavg -nan
scalar SingleCell_D2D.ueD2DTx[1].cellularNic.mac macDelayUl:mean 0.0040000000000000027
scalar SingleCell_D2D.ueD2DTx[1].cellularNic.mac macDelayDl:mean -nan
scalar SingleCell_D2D.ueD2DTx[1].cellularNic.mac macCellThroughputUl:simu5g_rateavg -nan
scalar SingleCell_D2D.ueD2DTx[1].cellularNic.mac macCellThroughputDl:simu5g_rateavg -nan
scalar SingleCell_D2D.ueD2DTx[1].cellularNic.mac rcvdD2DModeSwitchNotification:count 0
scalar SingleCell_D2D.ueD2DTx[1].cellularNic.mac sentPacketToLowerLayer:count 1481
scalar SingleCell_D2D.ueD2DTx[1].cellularNic.mac sentPacketToLowerLayer:sum(packetBytes) 1247655
scalar SingleCell_D2D.ueD2DTx[1].cellularNic.mac sentPacketToUpperLayer:count 596
scalar SingleCell_D2D.ueD2DTx[1].cellularNic.mac sentPacketToUpperLayer:sum(packetBytes) 88708
scalar SingleCell_D2D.ueD2DTx[1].cellularNic.mac receivedPacketFromLowerLayer:count 2389
scalar SingleCell_D2D.ueD2DTx[1].cellularNic.mac receivedPacketFromLowerLayer:sum(packetBytes) 90909
scalar SingleCell_D2D.ueD2DTx[1].cellularNic.mac receivedPacketFromUpperLayer:count 2551
scalar SingleCell_D2D.ueD2DTx[1].cellularNic.mac receivedPacketFromUpperLayer:sum(packetBytes) 2490134
scalar SingleCell_D2D.ueD2DTx[1].cellularNic.mac macBufferOverFlowD2D:mean -nan
scalar SingleCell_D2D.ueD2DTx[1].cellularNic.mac macBufferOverFlowUl:mean -nan
scalar SingleCell_D2D.ueD2DTx[1].cellularNic.mac macBufferOverFlowDl:mean -nan
scalar SingleCell_D2D.ueD2DTx[1].cellularNic.phy distance:mean -nan
scalar SingleCell_D2D.ueD2DTx[1].cellularNic.phy averageCqiD2D:mean 15
scalar SingleCell_D2D.ueD2DTx[1].cellularNic.phy averageCqiUl:mean 15
scalar SingleCell_D2D.ueD2DTx[1].cellularNic.phy averageCqiUl:count 323
scalar SingleCell_D2D.ueD2DTx[1].cellularNic.phy averageCqiDl:mean -nan
scalar SingleCell_D2D.ueD2DTx[1].cellularNic.phy averageCqiDl:count 0
scalar SingleCell_D2D.ueD2DTx[1].cellularNic.channelModel[0] measuredSinrUl:mean 55.339674612077786
scalar SingleCell_D2D.ueD2DTx[1].cellularNic.channelModel[0] measuredSinrDl:mean 71.290221485498009
scalar SingleCell_D2D.ueD2DTx[1].cellularNic.channelModel[0] rcvdSinrD2D:mean -nan
scalar SingleCell_D2D.ueD2DTx[1].cellularNic.channelModel[0] rcvdSinrUl:mean 54.095395833463449
scalar SingleCell_D2D.ueD2DTx[1].cellularNic.channelModel[0] rcvdSinrDl:mean -nan
scalar SingleCell_D2D.ueD2DTx[1].cellularNic packetDropInterfaceDown:count 0
scalar SingleCell_D2D.ueD2DTx[1].cellularNic packetDropInterfaceDown:sum(packetBytes) 0
scalar SingleCell_D2D.ueD2DTx[1].cellularNic packetDropNoCarrier:count 0
scalar SingleCell_D2D.ueD2DTx[1].cellularNic packetDropNoCarrier:sum(packetBytes) 0
scalar SingleCell_D2D.ueD2DTx[1].encap pauseSent:count 0
scalar SingleCell_D2D.ueD2DTx[1].encap pauseSent:sum 0
scalar SingleCell_D2D.ueD2DTx[1].encap decapPk:count 0
scalar SingleCell_D2D.ueD2DTx[1].encap decapPk:sum(packetBytes) 0
scalar SingleCell_D2D.ueD2DTx[1].encap encapPk:count 0
scalar SingleCell_D2D.ueD2DTx[1].encap encapPk:sum(packetBytes) 0
scalar SingleCell_D2D.ueD2DTx[1].ipv4.ip packetDropAddressResolutionFailed:count 0
scalar SingleCell_D2D.ueD2DTx[1].ipv4.ip packetDropAddressResolutionFailed:sum(packetBytes) 0
scalar SingleCell_D2D.ueD2DTx[1].ipv4.ip packetDropHopLimitReached:count 0
scalar SingleCell_D2D.ueD2DTx[1].ipv4.ip packetDropHopLimitReached:sum(packetBytes) 0
scalar SingleCell_D2D.ueD2DTx[1].ipv4.ip packetDropForwardingDisabled:count 0
scalar SingleCell_D2D.ueD2DTx[1].ipv4.ip packetDropForwardingDisabled:sum(packetBytes) 0
scalar SingleCell_D2D.ueD2DTx[1].ipv4.ip packetDropNoInterfaceFound:count 0
scalar SingleCell_D2D.ueD2DTx[1].ipv4.ip packetDropNoInterfaceFound:sum(packetBytes) 0
scalar SingleCell_D2D.ueD2DTx[1].ipv4.ip packetDropNoRouteFound:count 0
scalar SingleCell_D2D.ueD2DTx[1].ipv4.ip packetDropNoRouteFound:sum(packetBytes) 0
scalar SingleCell_D2D.ueD2DTx[1].ipv4.ip packetDropUndefined:count 0
scalar SingleCell_D2D.ueD2DTx[1].ipv4.ip packetDropUndefined:sum(packetBytes) 0
scalar SingleCell_D2D.ueD2DTx[1].ipv4.arp arpResolutionFailed:count 0
scalar SingleCell_D2D.ueD2DTx[1].ipv4.arp arpResolutionCompleted:count 0
scalar SingleCell_D2D.ueD2DTx[1].ipv4.arp arpResolutionInitiated:count 0
scalar SingleCell_D2D.ueD2DTx[1].ipv4.arp arpReplySent:count 0
scalar SingleCell_D2D.ueD2DTx[1].ipv4.arp arpReplySent:sum(packetBytes) 0
scalar SingleCell_D2D.ueD2DTx[1].ipv4.arp arpRequestSent:count 0
scalar SingleCell_D2D.ueD2DTx[1].ipv4.arp arpRequestSent:sum(packetBytes) 0
scalar SingleCell_D2D.ueD2DTx[1].udp packetReceived:count 0
scalar SingleCell_D2D.ueD2DTx[1].udp packetReceived:sum(packetBytes) 0
scalar SingleCell_D2D.ueD2DTx[1].udp packetSent:count 0
scalar SingleCell_D2D.ueD2DTx[1].udp packetSent:sum(packetBytes) 0
scalar SingleCell_D2D.ueD2DTx[1].udp passedUpPk:count 0
scalar SingleCell_D2D.ueD2DTx[1].udp droppedPkWrongPort:count 0
scalar SingleCell_D2D.ueD2DTx[1].udp droppedPkBadChecksum:count 0
scalar SingleCell_D2D.ueD2DTx[1].app[0] bytesRcvd 0
scalar SingleCell_D2D.ueD2DTx[1].app[0] bytesSent 1073741824
scalar SingleCell_D2D.ueD2DTx[1].app[0] packetReceived:count 0
scalar SingleCell_D2D.ueD2DTx[1].app[0] packetReceived:sum(packetBytes) 0
scalar SingleCell_D2D.ueD2DTx[1].app[0] packetSent:count 1
scalar SingleCell_D2D.ueD2DTx[1].app[0] packetSent:sum(packetBytes) 1073741824
scalar SingleCell_D2D.ueD2DTx[2].lo[0].lo rcvdPkFromHl:count 0
scalar SingleCell_D2D.ueD2DTx[2].lo[0].lo rcvdPkFromHl:sum(packetBytes) 0
scalar SingleCell_D2D.ueD2DTx[2].lo[0].lo passedUpPk:count 0
scalar SingleCell_D2D.ueD2DTx[2].lo[0].lo passedUpPk:sum(packetBytes) 0
scalar SingleCell_D2D.ueD2DTx[2].lo[0] packetDropInterfaceDown:count 0
scalar SingleCell_D2D.ueD2DTx[2].lo[0] packetDropInterfaceDown:sum(packetBytes) 0
scalar SingleCell_D2D.ueD2DTx[2].lo[0] packetDropNoCarrier:count 0
scalar SingleCell_D2D.ueD2DTx[2].lo[0] packetDropNoCarrier:sum(packetBytes) 0
scalar SingleCell_D2D.ueD2DTx[2].cellularNic.pdcp sentPacketToLowerLayer:count 2187
scalar SingleCell_D2D.ueD2DTx[2].cellularNic.pdcp sentPacketToLowerLayer:sum(packetBytes) 1260831
scalar SingleCell_D2D.ueD2DTx[2].cellularNic.pdcp sentPacketToUpperLayer:count 2172
scalar SingleCell_D2D.ueD2DTx[2].cellularNic.pdcp sentPacketToUpperLayer:sum(packetBytes) 86884
scalar SingleCell_D2D.ueD2DTx[2].cellularNic.pdcp receivedPacketFromLowerLayer:count 2172
scalar SingleCell_D2D.ueD2DTx[2].cellularNic.pdcp receivedPacketFromLowerLayer:sum(packetBytes) 89056
scalar SingleCell_D2D.ueD2DTx[2].cellularNic.pdcp receivedPacketFromUpperLayer:count 2187
scalar SingleCell_D2D.ueD2DTx[2].cellularNic.pdcp receivedPacketFromUpperLayer:sum(packetBytes) 1258644
scalar SingleCell_D2D.ueD2DTx[2].cellularNic.rlc.tm rlcPacketLossUl:mean -nan
scalar SingleCell_D2D.ueD2DTx[2].cellularNic.rlc.tm rlcPacketLossUl:sum 0
scalar SingleCell_D2D.ueD2DTx[2].cellularNic.rlc.tm rlcPacketLossDl:mean -nan
scalar SingleCell_D2D.ueD2DTx[2].cellularNic.rlc.tm rlcPacketLossDl:sum 0
scalar SingleCell_D2D.ueD2DTx[2].cellularNic.rlc.tm sentPacketToLowerLayer:count 0
scalar SingleCell_D2D.ueD2DTx[2].cellularNic.rlc.tm sentPacketToLowerLayer:sum(packetBytes) 0
scalar SingleCell_D2D.ueD2DTx[2].cellularNic.rlc.tm sentPacketToUpperLayer:count 0
scalar SingleCell_D2D.ueD2DTx[2].cellularNic.rlc.tm sentPacketToUpperLayer:sum(packetBytes) 0
scalar SingleCell_D2D.ueD2DTx[2].cellularNic.rlc.tm receivedPacketFromLowerLayer:count 0
scalar SingleCell_D2D.ueD2DTx[2].cellularNic.rlc.tm receivedPacketFromLowerLayer:sum(packetBytes) 0
scalar SingleCell_D2D.ueD2DTx[2].cellularNic.rlc.tm receivedPacketFromUpperLayer:count 0
scalar SingleCell_D2D.ueD2DTx[2].cellularNic.rlc.tm receivedPacketFromUpperLayer:sum(packetBytes) 0
scalar SingleCell_D2D.ueD2DTx[2].cellularNic.rlc.um rlcCellThroughputD2D:simu5g_rateavg -nan
scalar SingleCell_D2D.ueD2DTx[2].cellularNic.rlc.um rlcPduThroughputD2D:simu5g_rateavg 0
scalar SingleCell_D2D.ueD2DTx[2].cellularNic.rlc.um rlcPduDelayD2D:mean 0.0040000000000000027
scalar SingleCell_D2D.ueD2DTx[2].cellularNic.rlc.um rlcThroughputD2D:simu5g_rateavg 14467.464044784863
scalar SingleCell_D2D.ueD2DTx[2].cellularNic.rlc.um rlcDelayD2D:mean 0.014371546961326033
scalar SingleCell_D2D.ueD2DTx[2].cellularNic.rlc.um rlcCellThroughputUl:simu5g_rateavg -nan
scalar SingleCell_D2D.ueD2DTx[2].cellularNic.rlc.um rlcCellThroughputDl:simu5g_rateavg -nan
scalar SingleCell_D2D.ueD2DTx[2].cellularNic.rlc.um rlcPduThroughputUl:simu5g_rateavg -nan
scalar SingleCell_D2D.ueD2DTx[2].cellularNic.rlc.um rlcPduThroughputDl:simu5g_rateavg -nan
scalar SingleCell_D2D.ueD2DTx[2].cellularNic.rlc.um rlcPduDelayUl:mean -nan
scalar SingleCell_D2D.ueD2DTx[2].cellularNic.rlc.um rlcPduDelayDl:mean -nan
scalar SingleCell_D2D.ueD2DTx[2].cellularNic.rlc.um rlcThroughputUl:simu5g_rateavg -nan
scalar SingleCell_D2D.ueD2DTx[2].cellularNic.rlc.um rlcThroughputDl:simu5g_rateavg -nan
scalar SingleCell_D2D.ueD2DTx[2].cellularNic.rlc.um rlcDelayUl:mean -nan
scalar SingleCell_D2D.ueD2DTx[2].cellularNic.rlc.um rlcDelayDl:mean -nan
scalar SingleCell_D2D.ueD2DTx[2].cellularNic.rlc.um sentPacketToLowerLayer:count 390
scalar SingleCell_D2D.ueD2DTx[2].cellularNic.rlc.um sentPacketToLowerLayer:sum(packetBytes) 1253533
scalar SingleCell_D2D.ueD2DTx[2].cellularNic.rlc.um sentPacketToUpperLayer:count 2172
scalar SingleCell_D2D.ueD2DTx[2].cellularNic.rlc.um sentPacketToUpperLayer:sum(packetBytes) 89056
scalar SingleCell_D2D.ueD2DTx[2].cellularNic.rlc.um receivedPacketFromLowerLayer:count 167
scalar SingleCell_D2D.ueD2DTx[2].cellularNic.rlc.um receivedPacketFromLowerLayer:sum(packetBytes) 89390
scalar SingleCell_D2D.ueD2DTx[2].cellularNic.rlc.um receivedPacketFromUpperLayer:count 2187
scalar SingleCell_D2D.ueD2DTx[2].cellularNic.rlc.um receivedPacketFromUpperLayer:sum(packetBytes) 1260831
scalar SingleCell_D2D.ueD2DTx[2].cellularNic.rlc.am rlcPacketLossTotal:mean -nan
scalar SingleCell_D2D.ueD2DTx[2].cellularNic.rlc.am rlcCellThroughputUl:simu5g_rateavg -nan
scalar SingleCell_D2D.ueD2DTx[2].cellularNic.rlc.am rlcCellThroughputDl:simu5g_rateavg -nan
scalar SingleCell_D2D.ueD2DTx[2].cellularNic.rlc.am rlcPduThroughputUl:simu5g_rateavg -nan
scalar SingleCell_D2D.ueD2DTx[2].cellularNic.rlc.am rlcPduThroughputDl:simu5g_rateavg -nan
scalar SingleCell_D2D.ueD2DTx[2].cellularNic.rlc.am rlcPduDelayUl:mean -nan
scalar SingleCell_D2D.ueD2DTx[2].cellularNic.rlc.am rlcPduDelayDl:mean -nan
scalar SingleCell_D2D.ueD2DTx[2].cellularNic.rlc.am rlcThroughputUl:simu5g_rateavg -nan
scalar SingleCell_D2D.ueD2DTx[2].cellularNic.rlc.am rlcThroughputDl:simu5g_rateavg -nan
scalar SingleCell_D2D.ueD2DTx[2].cellularNic.rlc.am rlcDelayUl:mean -nan
scalar SingleCell_D2D.ueD2DTx[2].cellularNic.rlc.am rlcDelayDl:mean -nan
scalar SingleCell_D2D.ueD2DTx[2].cellularNic.rlc.am rlcPduPacketLossUl:mean -nan
scalar SingleCell_D2D.ueD2DTx[2].cellularNic.rlc.am rlcPduPacketLossDl:mean -nan
scalar SingleCell_D2D.ueD2DTx[2].cellularNic.rlc.am rlcPacketLossUl:mean -nan
scalar SingleCell_D2D.ueD2DTx[2].cellularNic.rlc.am rlcPacketLossDl:mean -nan
scalar SingleCell_D2D.ueD2DTx[2].cellularNic.rlc.am rlcCellPacketLossUl:mean -nan
scalar SingleCell_D2D.ueD2DTx[2].cellularNic.rlc.am rlcCellPacketLossDl:mean -nan
scalar SingleCell_D2D.ueD2DTx[2].cellularNic.mac harqErrorRate_4th_D2D:mean -nan
scalar SingleCell_D2D.ueD2DTx[2].cellularNic.mac harqErrorRate_3rd_D2D:mean -nan
scalar SingleCell_D2D.ueD2DTx[2].cellularNic.mac harqErrorRate_2nd_D2D:mean -nan
scalar SingleCell_D2D.ueD2DTx[2].cellularNic.mac harqErrorRate_1st_D2D:mean 0
scalar SingleCell_D2D.ueD2DTx[2].cellularNic.mac harqErrorRateD2D:mean 0
scalar SingleCell_D2D.ueD2DTx[2].cellularNic.mac macPacketLossD2D:mean 0
scalar SingleCell_D2D.ueD2DTx[2].cellularNic.mac macDelayD2D:mean 0.0040000000000000027
scalar SingleCell_D2D.ueD2DTx[2].cellularNic.mac macThroughputD2D:simu5g_rateavg 14878.550268367402
scalar SingleCell_D2D.ueD2DTx[2].cellularNic.mac harqTxAttemptsUl:mean 1
scalar SingleCell_D2D.ueD2DTx[2].cellularNic.mac harqTxAttemptsDl:mean -nan
scalar SingleCell_D2D.ueD2DTx[2].cellularNic.mac harqErrorRate_4th_Ul:mean -nan
scalar SingleCell_D2D.ueD2DTx[2].cellularNic.mac harqErrorRate_4th_Dl:mean -nan
scalar SingleCell_D2D.ueD2DTx[2].cellularNic.mac harqErrorRate_3rd_Ul:mean -nan
scalar SingleCell_D2D.ueD2DTx[2].cellularNic.mac harqErrorRate_3rd_Dl:mean -nan
scalar SingleCell_D2D.ueD2DTx[2].cellularNic.mac harqErrorRate_2nd_Ul:mean -nan
scalar SingleCell_D2D.ueD2DTx[2].cellularNic.mac harqErrorRate_2nd_Dl:mean -nan
scalar SingleCell_D2D.ueD2DTx[2].cellularNic.mac harqErrorRate_1st_Ul:mean 0
scalar SingleCell_D2D.ueD2DTx[2].cellularNic.mac harqErrorRate_1st_Dl:mean -nan
scalar SingleCell_D2D.ueD2DTx[2].cellularNic.mac harqErrorRateUl:mean 0
scalar SingleCell_D2D.ueD2DTx[2].cellularNic.mac harqErrorRateDl:mean -nan
scalar SingleCell_D2D.ueD2DTx[2].cellularNic.mac macCellPacketLossUl:mean -nan
scalar SingleCell_D2D.ueD2DTx[2].cellularNic.mac macCellPacketLossDl:mean -nan
scalar SingleCell_D2D.ueD2DTx[2].cellularNic.mac macPacketLossUl:mean 0
scalar SingleCell_D2D.ueD2DTx[2].cellularNic.mac macPacketLossDl:mean -nan
scalar SingleCell_D2D.ueD2DTx[2].cellularNic.mac macThroughputUl:simu5g_rateavg 118.61561872994045
scalar SingleCell_D2D.ueD2DTx[2].cellularNic.mac macThroughputDl:simu5g_rateavg -nan
scalar SingleCell_D2D.ueD2DTx[2].cellularNic.mac macDelayUl:mean 0.0040000000000000027
scalar SingleCell_D2D.ueD2DTx[2].cellularNic.mac macDelayDl:mean -nan
scalar SingleCell_D2D.ueD2DTx[2].cellularNic.mac macCellThroughputUl:simu5g_rateavg -nan
scalar SingleCell_D2D.ueD2DTx[2].cellularNic.mac macCellThroughputDl:simu5g_rateavg -nan
scalar SingleCell_D2D.ueD2DTx[2].cellularNic.mac rcvdD2DModeSwitchNotification:count 0
scalar SingleCell_D2D.ueD2DTx[2].cellularNic.mac sentPacketToLowerLayer:count 1410
scalar SingleCell_D2D.ueD2DTx[2].cellularNic.mac sentPacketToLowerLayer:sum(packetBytes) 1255658
scalar SingleCell_D2D.ueD2DTx[2].cellularNic.mac sentPacketToUpperLayer:count 557
scalar SingleCell_D2D.ueD2DTx[2].cellularNic.mac sentPacketToUpperLayer:sum(packetBytes) 89780
scalar SingleCell_D2D.ueD2DTx[2].cellularNic.mac receivedPacketFromLowerLayer:count 2379
scalar SingleCell_D2D.ueD2DTx[2].cellularNic.mac receivedPacketFromLowerLayer:sum(packetBytes) 91936
scalar SingleCell_D2D.ueD2DTx[2].cellularNic.mac receivedPacketFromUpperLayer:count 2577
scalar SingleCell_D2D.ueD2DTx[2].cellularNic.mac receivedPacketFromUpperLayer:sum(packetBytes) 2514364
scalar SingleCell_D2D.ueD2DTx[2].cellularNic.mac macBufferOverFlowD2D:mean -nan
scalar SingleCell_D2D.ueD2DTx[2].cellularNic.mac macBufferOverFlowUl:mean -nan
scalar SingleCell_D2D.ueD2DTx[2].cellularNic.mac macBufferOverFlowDl:mean -nan
scalar SingleCell_D2D.ueD2DTx[2].cellularNic.phy distance:mean -nan
scalar SingleCell_D2D.ueD2DTx[2].cellularNic.phy averageCqiD2D:mean 15
scalar SingleCell_D2D.ueD2DTx[2].cellularNic.phy averageCqiUl:mean 15
scalar SingleCell_D2D.ueD2DTx[2].cellularNic.phy averageCqiUl:count 325
scalar SingleCell_D2D.ueD2DTx[2].cellularNic.phy averageCqiDl:mean -nan
scalar SingleCell_D2D.ueD2DTx[2].cellularNic.phy averageCqiDl:count 0
scalar SingleCell_D2D.ueD2DTx[2].cellularNic.channelModel[0] measuredSinrUl:mean 49.923692756385712
scalar SingleCell_D2D.ueD2DTx[2].cellularNic.channelModel[0] measuredSinrDl:mean 80.777229823717562
scalar SingleCell_D2D.ueD2DTx[2].cellularNic.channelModel[0] rcvdSinrD2D:mean -nan
scalar SingleCell_D2D.ueD2DTx[2].cellularNic.channelModel[0] rcvdSinrUl:mean 63.471264930678515
scalar SingleCell_D2D.ueD2DTx[2].cellularNic.channelModel[0] rcvdSinrDl:mean -nan
scalar SingleCell_D2D.ueD2DTx[2].cellularNic packetDropInterfaceDown:count 0
scalar SingleCell_D2D.ueD2DTx[2].cellularNic packetDropInterfaceDown:sum(packetBytes) 0
scalar SingleCell_D2D.ueD2DTx[2].cellularNic packetDropNoCarrier:count 0
scalar SingleCell_D2D.ueD2DTx[2].cellularNic packetDropNoCarrier:sum(packetBytes) 0
scalar SingleCell_D2D.ueD2DTx[2].encap pauseSent:count 0
scalar SingleCell_D2D.ueD2DTx[2].encap pauseSent:sum 0
scalar SingleCell_D2D.ueD2DTx[2].encap decapPk:count 0
scalar SingleCell_D2D.ueD2DTx[2].encap decapPk:sum(packetBytes) 0
scalar SingleCell_D2D.ueD2DTx[2].encap encapPk:count 0
scalar SingleCell_D2D.ueD2DTx[2].encap encapPk:sum(packetBytes) 0
scalar SingleCell_D2D.ueD2DTx[2].ipv4.ip packetDropAddressResolutionFailed:count 0
scalar SingleCell_D2D.ueD2DTx[2].ipv4.ip packetDropAddressResolutionFailed:sum(packetBytes) 0
scalar SingleCell_D2D.ueD2DTx[2].ipv4.ip packetDropHopLimitReached:count 0
scalar SingleCell_D2D.ueD2DTx[2].ipv4.ip packetDropHopLimitReached:sum(packetBytes) 0
scalar SingleCell_D2D.ueD2DTx[2].ipv4.ip packetDropForwardingDisabled:count 0
scalar SingleCell_D2D.ueD2DTx[2].ipv4.ip packetDropForwardingDisabled:sum(packetBytes) 0
scalar SingleCell_D2D.ueD2DTx[2].ipv4.ip packetDropNoInterfaceFound:count 0
scalar SingleCell_D2D.ueD2DTx[2].ipv4.ip packetDropNoInterfaceFound:sum(packetBytes) 0
scalar SingleCell_D2D.ueD2DTx[2].ipv4.ip packetDropNoRouteFound:count 0
scalar SingleCell_D2D.ueD2DTx[2].ipv4.ip packetDropNoRouteFound:sum(packetBytes) 0
scalar SingleCell_D2D.ueD2DTx[2].ipv4.ip packetDropUndefined:count 0
scalar SingleCell_D2D.ueD2DTx[2].ipv4.ip packetDropUndefined:sum(packetBytes) 0
scalar SingleCell_D2D.ueD2DTx[2].ipv4.arp arpResolutionFailed:count 0
scalar SingleCell_D2D.ueD2DTx[2].ipv4.arp arpResolutionCompleted:count 0
scalar SingleCell_D2D.ueD2DTx[2].ipv4.arp arpResolutionInitiated:count 0
scalar SingleCell_D2D.ueD2DTx[2].ipv4.arp arpReplySent:count 0
scalar SingleCell_D2D.ueD2DTx[2].ipv4.arp arpReplySent:sum(packetBytes) 0
scalar SingleCell_D2D.ueD2DTx[2].ipv4.arp arpRequestSent:count 0
scalar SingleCell_D2D.ueD2DTx[2].ipv4.arp arpRequestSent:sum(packetBytes) 0
scalar SingleCell_D2D.ueD2DTx[2].udp packetReceived:count 0
scalar SingleCell_D2D.ueD2DTx[2].udp packetReceived:sum(packetBytes) 0
scalar SingleCell_D2D.ueD2DTx[2].udp packetSent:count 0
scalar SingleCell_D2D.ueD2DTx[2].udp packetSent:sum(packetBytes) 0
scalar SingleCell_D2D.ueD2DTx[2].udp passedUpPk:count 0
scalar SingleCell_D2D.ueD2DTx[2].udp droppedPkWrongPort:count 0
scalar SingleCell_D2D.ueD2DTx[2].udp droppedPkBadChecksum:count 0
scalar SingleCell_D2D.ueD2DTx[2].app[0] bytesRcvd 0
scalar SingleCell_D2D.ueD2DTx[2].app[0] bytesSent 1073741824
scalar SingleCell_D2D.ueD2DTx[2].app[0] packetReceived:count 0
scalar SingleCell_D2D.ueD2DTx[2].app[0] packetReceived:sum(packetBytes) 0
scalar SingleCell_D2D.ueD2DTx[2].app[0] packetSent:count 1
scalar SingleCell_D2D.ueD2DTx[2].app[0] packetSent:sum(packetBytes) 1073741824
scalar SingleCell_D2D.ueD2DTx[3].lo[0].lo rcvdPkFromHl:count 0
scalar SingleCell_D2D.ueD2DTx[3].lo[0].lo rcvdPkFromHl:sum(packetBytes) 0
scalar SingleCell_D2D.ueD2DTx[3].lo[0].lo passedUpPk:count 0
scalar SingleCell_D2D.ueD2DTx[3].lo[0].lo passedUpPk:sum(packetBytes) 0
scalar SingleCell_D2D.ueD2DTx[3].lo[0] packetDropInterfaceDown:count 0
scalar SingleCell_D2D.ueD2DTx[3].lo[0] packetDropInterfaceDown:sum(packetBytes) 0
scalar SingleCell_D2D.ueD2DTx[3].lo[0] packetDropNoCarrier:count 0
scalar SingleCell_D2D.ueD2DTx[3].lo[0] packetDropNoCarrier:sum(packetBytes) 0
scalar SingleCell_D2D.ueD2DTx[3].cellularNic.pdcp sentPacketToLowerLayer:count 2033
scalar SingleCell_D2D.ueD2DTx[3].cellularNic.pdcp sentPacketToLowerLayer:sum(packetBytes) 1171973
scalar SingleCell_D2D.ueD2DTx[3].cellularNic.pdcp sentPacketToUpperLayer:count 2018
scalar SingleCell_D2D.ueD2DTx[3].cellularNic.pdcp sentPacketToUpperLayer:sum(packetBytes) 80724
scalar SingleCell_D2D.ueD2DTx[3].cellularNic.pdcp receivedPacketFromLowerLayer:count 2018
scalar SingleCell_D2D.ueD2DTx[3].cellularNic.pdcp receivedPacketFromLowerLayer:sum(packetBytes) 82742
scalar SingleCell_D2D.ueD2DTx[3].cellularNic.pdcp receivedPacketFromUpperLayer:count 2033
scalar SingleCell_D2D.ueD2DTx[3].cellularNic.pdcp receivedPacketFromUpperLayer:sum(packetBytes) 1169940
scalar SingleCell_D2D.ueD2DTx[3].cellularNic.rlc.tm rlcPacketLossUl:mean -nan
scalar SingleCell_D2D.ueD2DTx[3].cellularNic.rlc.tm rlcPacketLossUl:sum 0
scalar SingleCell_D2D.ueD2DTx[3].cellularNic.rlc.tm rlcPacketLossDl:mean -nan
scalar SingleCell_D2D.ueD2DTx[3].cellularNic.rlc.tm rlcPacketLossDl:sum 0
scalar SingleCell_D2D.ueD2DTx[3].cellularNic.rlc.tm sentPacketToLowerLayer:count 0
scalar SingleCell_D2D.ueD2DTx[3].cellularNic.rlc.tm sentPacketToLowerLayer:sum(packetBytes) 0
scalar SingleCell_D2D.ueD2DTx[3].cellularNic.rlc.tm sentPacketToUpperLayer:count 0
scalar SingleCell_D2D.ueD2DTx[3].cellularNic.rlc.tm sentPacketToUpperLayer:sum(packetBytes) 0
scalar SingleCell_D2D.ueD2DTx[3].cellularNic.rlc.tm receivedPacketFromLowerLayer:count 0
scalar SingleCell_D2D.ueD2DTx[3].cellularNic.rlc.tm receivedPacketFromLowerLayer:sum(packetBytes) 0
scalar SingleCell_D2D.ueD2DTx[3].cellularNic.rlc.tm receivedPacketFromUpperLayer:count 0
scalar SingleCell_D2D.ueD2DTx[3].cellularNic.rlc.tm receivedPacketFromUpperLayer:sum(packetBytes) 0
scalar SingleCell_D2D.ueD2DTx[3].cellularNic.rlc.um rlcCellThroughputD2D:simu5g_rateavg -nan
scalar SingleCell_D2D.ueD2DTx[3].cellularNic.rlc.um rlcPduThroughputD2D:simu5g_rateavg 0
scalar SingleCell_D2D.ueD2DTx[3].cellularNic.rlc.um rlcPduDelayD2D:mean 0.0055686274509803959
scalar SingleCell_D2D.ueD2DTx[3].cellularNic.rlc.um rlcThroughputD2D:simu5g_rateavg 12670.186156760043
scalar SingleCell_D2D.ueD2DTx[3].cellularNic.rlc.um rlcDelayD2D:mean 0.016267591674925721
scalar SingleCell_D2D.ueD2DTx[3].cellularNic.rlc.um rlcCellThroughputUl:simu5g_rateavg -nan
scalar SingleCell_D2D.ueD2DTx[3].cellularNic.rlc.um rlcCellThroughputDl:simu5g_rateavg -nan
scalar SingleCell_D2D.ueD2DTx[3].cellularNic.rlc.um rlcPduThroughputUl:simu5g_rateavg -nan
scalar SingleCell_D2D.ueD2DTx[3].cellularNic.rlc.um rlcPduThroughputDl:simu5g_rateavg -nan
scalar SingleCell_D2D.ueD2DTx[3].cellularNic.rlc.um rlcPduDelayUl:mean -nan
scalar SingleCell_D2D.ueD2DTx[3].cellularNic.rlc.um rlcPduDelayDl:mean -nan
scalar SingleCell_D2D.ueD2DTx[3].cellularNic.rlc.um rlcThroughputUl:simu5g_rateavg -nan
scalar SingleCell_D2D.ueD2DTx[3].cellularNic.rlc.um rlcThroughputDl:simu5g_rateavg -nan
scalar SingleCell_D2D.ueD2DTx[3].cellularNic.rlc.um rlcDelayUl:mean -nan
scalar SingleCell_D2D.ueD2DTx[3].cellularNic.rlc.um rlcDelayDl:mean -nan
scalar SingleCell_D2D.ueD2DTx[3].cellularNic.rlc.um sentPacketToLowerLayer:count 368
scalar SingleCell_D2D.ueD2DTx[3].cellularNic.rlc.um sentPacketToLowerLayer:sum(packetBytes) 1172709
scalar SingleCell_D2D.ueD2DTx[3].cellularNic.rlc.um sentPacketToUpperLayer:count 2018
scalar SingleCell_D2D.ueD2DTx[3].cellularNic.rlc.um sentPacketToUpperLayer:sum(packetBytes) 82742
scalar SingleCell_D2D.ueD2DTx[3].cellularNic.rlc.um receivedPacketFromLowerLayer:count 204
scalar SingleCell_D2D.ueD2DTx[3].cellularNic.rlc.um receivedPacketFromLowerLayer:sum(packetBytes) 83150
scalar SingleCell_D2D.ueD2DTx[3].cellularNic.rlc.um receivedPacketFromUpperLayer:count 2033
scalar SingleCell_D2D.ueD2DTx[3].cellularNic.rlc.um receivedPacketFromUpperLayer:sum(packetBytes) 1171973
scalar SingleCell_D2D.ueD2DTx[3].cellularNic.rlc.am rlcPacketLossTotal:mean -nan
scalar SingleCell_D2D.ueD2DTx[3].cellularNic.rlc.am rlcCellThroughputUl:simu5g_rateavg -nan
scalar SingleCell_D2D.ueD2DTx[3].cellularNic.rlc.am rlcCellThroughputDl:simu5g_rateavg -nan
scalar SingleCell_D2D.ueD2DTx[3].cellularNic.rlc.am rlcPduThroughputUl:simu5g_rateavg -nan
scalar SingleCell_D2D.ueD2DTx[3].cellularNic.rlc.am rlcPduThroughputDl:simu5g_rateavg -nan
scalar SingleCell_D2D.ueD2DTx[3].cellularNic.rlc.am rlcPduDelayUl:mean -nan
scalar SingleCell_D2D.ueD2DTx[3].cellularNic.rlc.am rlcPduDelayDl:mean -nan
scalar SingleCell_D2D.ueD2DTx[3].cellularNic.rlc.am rlcThroughputUl:simu5g_rateavg -nan
scalar SingleCell_D2D.ueD2DTx[3].cellularNic.rlc.am rlcThroughputDl:simu5g_rateavg -nan
scalar SingleCell_D2D.ueD2DTx[3].cellularNic.rlc.am rlcDelayUl:mean -nan
scalar SingleCell_D2D.ueD2DTx[3].cellularNic.rlc.am rlcDelayDl:mean -nan
scalar SingleCell_D2D.ueD2DTx[3].cellularNic.rlc.am rlcPduPacketLossUl:mean -nan
scalar SingleCell_D2D.ueD2DTx[3].cellularNic.rlc.am rlcPduPacketLossDl:mean -nan
scalar SingleCell_D2D.ueD2DTx[3].cellularNic.rlc.am rlcPacketLossUl:mean -nan
scalar SingleCell_D2D.ueD2DTx[3].cellularNic.rlc.am rlcPacketLossDl:mean -nan
scalar SingleCell_D2D.ueD2DTx[3].cellularNic.rlc.am rlcCellPacketLossUl:mean -nan
scalar SingleCell_D2D.ueD2DTx[3].cellularNic.rlc.am rlcCellPacketLossDl:mean -nan
scalar SingleCell_D2D.ueD2DTx[3].cellularNic.mac harqErrorRate_4th_D2D:mean -nan
scalar SingleCell_D2D.ueD2DTx[3].cellularNic.mac harqErrorRate_3rd_D2D:mean 0
scalar SingleCell_D2D.ueD2DTx[3].cellularNic.mac harqErrorRate_2nd_D2D:mean 0.052631578947368418
scalar SingleCell_D2D.ueD2DTx[3].cellularNic.mac harqErrorRate_1st_D2D:mean 0.18627450980392157
scalar SingleCell_D2D.ueD2DTx[3].cellularNic.mac harqErrorRateD2D:mean 0.16393442622950818
scalar SingleCell_D2D.ueD2DTx[3].cellularNic.mac macPacketLossD2D:mean 0
scalar SingleCell_D2D.ueD2DTx[3].cellularNic.mac macDelayD2D:mean 0.0055686274509803959
scalar SingleCell_D2D.ueD2DTx[3].cellularNic.mac macThroughputD2D:simu5g_rateavg 13033.873545405746
scalar SingleCell_D2D.ueD2DTx[3].cellularNic.mac harqTxAttemptsUl:mean 1
scalar SingleCell_D2D.ueD2DTx[3].cellularNic.mac harqTxAttemptsDl:mean -nan
scalar SingleCell_D2D.ueD2DTx[3].cellularNic.mac harqErrorRate_4th_Ul:mean -nan
scalar SingleCell_D2D.ueD2DTx[3].cellularNic.mac harqErrorRate_4th_Dl:mean -nan
scalar SingleCell_D2D.ueD2DTx[3].cellularNic.mac harqErrorRate_3rd_Ul:mean -nan
scalar SingleCell_D2D.ueD2DTx[3].cellularNic.mac harqErrorRate_3rd_Dl:mean -nan
scalar SingleCell_D2D.ueD2DTx[3].cellularNic.mac harqErrorRate_2nd_Ul:mean -nan
scalar SingleCell_D2D.ueD2DTx[3].cellularNic.mac harqErrorRate_2nd_Dl:mean -nan
scalar SingleCell_D2D.ueD2DTx[3].cellularNic.mac harqErrorRate_1st_Ul:mean 0
scalar SingleCell_D2D.ueD2DTx[3].cellularNic.mac harqErrorRate_1st_Dl:mean -nan
scalar SingleCell_D2D.ueD2DTx[3].cellularNic.mac harqErrorRateUl:mean 0
scalar SingleCell_D2D.ueD2DTx[3].cellularNic.mac harqErrorRateDl:mean -nan
[...]
scalar SingleCell_D2D.ueD2DRx[0].tcp.conn-41 rcvAdv:vector:max 1162920
scalar SingleCell_D2D.ueD2DRx[0].tcp.conn-41 rcvAdv:vector:starttime 0.072000000000000008
scalar SingleCell_D2D.ueD2DRx[0].tcp.conn-41 rcvAdv:vector:endtime 4.9740000000000002
scalar SingleCell_D2D.ueD2DRx[0].tcp.conn-41 sndNxt:vector:count 0
scalar SingleCell_D2D.ueD2DRx[0].tcp.conn-41 sndNxt:vector:sum 0
scalar SingleCell_D2D.ueD2DRx[0].tcp.conn-41 sndNxt:vector:sumweights 0
scalar SingleCell_D2D.ueD2DRx[0].tcp.conn-41 sndNxt:vector:mean -nan
scalar SingleCell_D2D.ueD2DRx[0].tcp.conn-41 sndNxt:vector:stddev nan
scalar SingleCell_D2D.ueD2DRx[0].tcp.conn-41 sndNxt:vector:min inf
scalar SingleCell_D2D.ueD2DRx[0].tcp.conn-41 sndNxt:vector:max -inf
scalar SingleCell_D2D.ueD2DRx[0].tcp.conn-41 sndNxt:vector:starttime nan
scalar SingleCell_D2D.ueD2DRx[0].tcp.conn-41 sndNxt:vector:endtime nan
scalar SingleCell_D2D.ueD2DRx[0].tcp.conn-41 sndAck:vector:count 2130
scalar SingleCell_D2D.ueD2DRx[0].tcp.conn-41 sndAck:vector:sum 1245717720
scalar SingleCell_D2D.ueD2DRx[0].tcp.conn-41 sndAck:vector:sumweights 2130
scalar SingleCell_D2D.ueD2DRx[0].tcp.conn-41 sndAck:vector:mean 584844
scalar SingleCell_D2D.ueD2DRx[0].tcp.conn-41 sndAck:vector:stddev 329651.98352201673
scalar SingleCell_D2D.ueD2DRx[0].tcp.conn-41 sndAck:vector:min 14272
scalar SingleCell_D2D.ueD2DRx[0].tcp.conn-41 sndAck:vector:max 1155416
scalar SingleCell_D2D.ueD2DRx[0].tcp.conn-41 sndAck:vector:starttime 0.072000000000000008
scalar SingleCell_D2D.ueD2DRx[0].tcp.conn-41 sndAck:vector:endtime 4.9740000000000002
scalar SingleCell_D2D.ueD2DRx[0].tcp.conn-41 rcvSeq:vector:count 2130
scalar SingleCell_D2D.ueD2DRx[0].tcp.conn-41 rcvSeq:vector:sum 1244576576
scalar SingleCell_D2D.ueD2DRx[0].tcp.conn-41 rcvSeq:vector:sumweights 2130
scalar SingleCell_D2D.ueD2DRx[0].tcp.conn-41 rcvSeq:vector:mean 584308.25164319249
scalar SingleCell_D2D.ueD2DRx[0].tcp.conn-41 rcvSeq:vector:stddev 329651.54796979303
scalar SingleCell_D2D.ueD2DRx[0].tcp.conn-41 rcvSeq:vector:min 14272
scalar SingleCell_D2D.ueD2DRx[0].tcp.conn-41 rcvSeq:vector:max 1154880
scalar SingleCell_D2D.ueD2DRx[0].tcp.conn-41 rcvSeq:vector:starttime 0.10200000000000001
scalar SingleCell_D2D.ueD2DRx[0].tcp.conn-41 rcvSeq:vector:endtime 4.9740000000000002
scalar SingleCell_D2D.ueD2DRx[0].tcp.conn-41 rcvAck:vector:count 2130
scalar SingleCell_D2D.ueD2DRx[0].tcp.conn-41 rcvAck:vector:sum 38342130
scalar SingleCell_D2D.ueD2DRx[0].tcp.conn-41 rcvAck:vector:sumweights 2130
scalar SingleCell_D2D.ueD2DRx[0].tcp.conn-41 rcvAck:vector:mean 18001
scalar SingleCell_D2D.ueD2DRx[0].tcp.conn-41 rcvAck:vector:stddev 0
scalar SingleCell_D2D.ueD2DRx[0].tcp.conn-41 rcvAck:vector:min 18001
scalar SingleCell_D2D.ueD2DRx[0].tcp.conn-41 rcvAck:vector:max 18001
scalar SingleCell_D2D.ueD2DRx[0].tcp.conn-41 rcvAck:vector:starttime 0.10200000000000001
scalar SingleCell_D2D.ueD2DRx[0].tcp.conn-41 rcvAck:vector:endtime 4.9740000000000002
scalar SingleCell_D2D.ueD2DRx[0].tcp.conn-41 unacked:vector:count 1
scalar SingleCell_D2D.ueD2DRx[0].tcp.conn-41 unacked:vector:sum 0
scalar SingleCell_D2D.ueD2DRx[0].tcp.conn-41 unacked:vector:sumweights 1
scalar SingleCell_D2D.ueD2DRx[0].tcp.conn-41 unacked:vector:mean 0
scalar SingleCell_D2D.ueD2DRx[0].tcp.conn-41 unacked:vector:stddev nan
scalar SingleCell_D2D.ueD2DRx[0].tcp.conn-41 unacked:vector:min 0
scalar SingleCell_D2D.ueD2DRx[0].tcp.conn-41 unacked:vector:max 0
scalar SingleCell_D2D.ueD2DRx[0].tcp.conn-41 unacked:vector:starttime 0.10200000000000001
scalar SingleCell_D2D.ueD2DRx[0].tcp.conn-41 unacked:vector:endtime 0.10200000000000001
scalar SingleCell_D2D.ueD2DRx[0].tcp.conn-41 dupAcks:vector:count 2129
scalar SingleCell_D2D.ueD2DRx[0].tcp.conn-41 dupAcks:vector:sum 0
scalar SingleCell_D2D.ueD2DRx[0].tcp.conn-41 dupAcks:vector:sumweights 2129
scalar SingleCell_D2D.ueD2DRx[0].tcp.conn-41 dupAcks:vector:mean 0
scalar SingleCell_D2D.ueD2DRx[0].tcp.conn-41 dupAcks:vector:stddev 0
scalar SingleCell_D2D.ueD2DRx[0].tcp.conn-41 dupAcks:vector:min 0
scalar SingleCell_D2D.ueD2DRx[0].tcp.conn-41 dupAcks:vector:max 0
scalar SingleCell_D2D.ueD2DRx[0].tcp.conn-41 dupAcks:vector:starttime 0.29299999999999998
scalar SingleCell_D2D.ueD2DRx[0].tcp.conn-41 dupAcks:vector:endtime 4.9740000000000002
scalar SingleCell_D2D.ueD2DRx[0].tcp.conn-41 pipe:vector:count 0
scalar SingleCell_D2D.ueD2DRx[0].tcp.conn-41 pipe:vector:sum 0
scalar SingleCell_D2D.ueD2DRx[0].tcp.conn-41 pipe:vector:sumweights 0
scalar SingleCell_D2D.ueD2DRx[0].tcp.conn-41 pipe:vector:mean -nan
scalar SingleCell_D2D.ueD2DRx[0].tcp.conn-41 pipe:vector:stddev nan
scalar SingleCell_D2D.ueD2DRx[0].tcp.conn-41 pipe:vector:min inf
scalar SingleCell_D2D.ueD2DRx[0].tcp.conn-41 pipe:vector:max -inf
scalar SingleCell_D2D.ueD2DRx[0].tcp.conn-41 pipe:vector:starttime nan
scalar SingleCell_D2D.ueD2DRx[0].tcp.conn-41 pipe:vector:endtime nan
scalar SingleCell_D2D.ueD2DRx[0].tcp.conn-41 sndSacks:vector:count 0
scalar SingleCell_D2D.ueD2DRx[0].tcp.conn-41 sndSacks:vector:sum 0
scalar SingleCell_D2D.ueD2DRx[0].tcp.conn-41 sndSacks:vector:sumweights 0
scalar SingleCell_D2D.ueD2DRx[0].tcp.conn-41 sndSacks:vector:mean -nan
scalar SingleCell_D2D.ueD2DRx[0].tcp.conn-41 sndSacks:vector:stddev nan
scalar SingleCell_D2D.ueD2DRx[0].tcp.conn-41 sndSacks:vector:min inf
scalar SingleCell_D2D.ueD2DRx[0].tcp.conn-41 sndSacks:vector:max -inf
scalar SingleCell_D2D.ueD2DRx[0].tcp.conn-41 sndSacks:vector:starttime nan
scalar SingleCell_D2D.ueD2DRx[0].tcp.conn-41 sndSacks:vector:endtime nan
scalar SingleCell_D2D.ueD2DRx[0].tcp.conn-41 rcvSacks:vector:count 0
scalar SingleCell_D2D.ueD2DRx[0].tcp.conn-41 rcvSacks:vector:sum 0
scalar SingleCell_D2D.ueD2DRx[0].tcp.conn-41 rcvSacks:vector:sumweights 0
scalar SingleCell_D2D.ueD2DRx[0].tcp.conn-41 rcvSacks:vector:mean -nan
scalar SingleCell_D2D.ueD2DRx[0].tcp.conn-41 rcvSacks:vector:stddev nan
scalar SingleCell_D2D.ueD2DRx[0].tcp.conn-41 rcvSacks:vector:min inf
scalar SingleCell_D2D.ueD2DRx[0].tcp.conn-41 rcvSacks:vector:max -inf
scalar SingleCell_D2D.ueD2DRx[0].tcp.conn-41 rcvSacks:vector:starttime nan
scalar SingleCell_D2D.ueD2DRx[0].tcp.conn-41 rcvSacks:vector:endtime nan
scalar SingleCell_D2D.ueD2DRx[0].tcp.conn-41 rcvOooSeg:vector:count 0
scalar SingleCell_D2D.ueD2DRx[0].tcp.conn-41 rcvOooSeg:vector:sum 0
scalar SingleCell_D2D.ueD2DRx[0].tcp.conn-41 rcvOooSeg:vector:sumweights 0
scalar SingleCell_D2D.ueD2DRx[0].tcp.conn-41 rcvOooSeg:vector:mean -nan
scalar SingleCell_D2D.ueD2DRx[0].tcp.conn-41 rcvOooSeg:vector:stddev nan
scalar SingleCell_D2D.ueD2DRx[0].tcp.conn-41 rcvOooSeg:vector:min inf
scalar SingleCell_D2D.ueD2DRx[0].tcp.conn-41 rcvOooSeg:vector:max -inf
scalar SingleCell_D2D.ueD2DRx[0].tcp.conn-41 rcvOooSeg:vector:starttime nan
scalar SingleCell_D2D.ueD2DRx[0].tcp.conn-41 rcvOooSeg:vector:endtime nan
scalar SingleCell_D2D.ueD2DRx[0].tcp.conn-41 rcvNASeg:vector:count 0
scalar SingleCell_D2D.ueD2DRx[0].tcp.conn-41 rcvNASeg:vector:sum 0
scalar SingleCell_D2D.ueD2DRx[0].tcp.conn-41 rcvNASeg:vector:sumweights 0
scalar SingleCell_D2D.ueD2DRx[0].tcp.conn-41 rcvNASeg:vector:mean -nan
scalar SingleCell_D2D.ueD2DRx[0].tcp.conn-41 rcvNASeg:vector:stddev nan
scalar SingleCell_D2D.ueD2DRx[0].tcp.conn-41 rcvNASeg:vector:min inf
scalar SingleCell_D2D.ueD2DRx[0].tcp.conn-41 rcvNASeg:vector:max -inf
scalar SingleCell_D2D.ueD2DRx[0].tcp.conn-41 rcvNASeg:vector:starttime nan
scalar SingleCell_D2D.ueD2DRx[0].tcp.conn-41 rcvNASeg:vector:endtime nan
scalar SingleCell_D2D.ueD2DRx[0].tcp.conn-41 sackedBytes:vector:count 0
scalar SingleCell_D2D.ueD2DRx[0].tcp.conn-41 sackedBytes:vector:sum 0
scalar SingleCell_D2D.ueD2DRx[0].tcp.conn-41 sackedBytes:vector:sumweights 0
scalar SingleCell_D2D.ueD2DRx[0].tcp.conn-41 sackedBytes:vector:mean -nan
scalar SingleCell_D2D.ueD2DRx[0].tcp.conn-41 sackedBytes:vector:stddev nan
scalar SingleCell_D2D.ueD2DRx[0].tcp.conn-41 sackedBytes:vector:min inf
scalar SingleCell_D2D.ueD2DRx[0].tcp.conn-41 sackedBytes:vector:max -inf
scalar SingleCell_D2D.ueD2DRx[0].tcp.conn-41 sackedBytes:vector:starttime nan
scalar SingleCell_D2D.ueD2DRx[0].tcp.conn-41 sackedBytes:vector:endtime nan
scalar SingleCell_D2D.ueD2DRx[0].tcp.conn-41 tcpRcvQueueBytes:vector:count 4259
scalar SingleCell_D2D.ueD2DRx[0].tcp.conn-41 tcpRcvQueueBytes:vector:sum 0
scalar SingleCell_D2D.ueD2DRx[0].tcp.conn-41 tcpRcvQueueBytes:vector:sumweights 4259
scalar SingleCell_D2D.ueD2DRx[0].tcp.conn-41 tcpRcvQueueBytes:vector:mean 0
scalar SingleCell_D2D.ueD2DRx[0].tcp.conn-41 tcpRcvQueueBytes:vector:stddev 0
scalar SingleCell_D2D.ueD2DRx[0].tcp.conn-41 tcpRcvQueueBytes:vector:min 0
scalar SingleCell_D2D.ueD2DRx[0].tcp.conn-41 tcpRcvQueueBytes:vector:max 0
scalar SingleCell_D2D.ueD2DRx[0].tcp.conn-41 tcpRcvQueueBytes:vector:starttime 0.072000000000000008
scalar SingleCell_D2D.ueD2DRx[0].tcp.conn-41 tcpRcvQueueBytes:vector:endtime 4.9740000000000002
scalar SingleCell_D2D.ueD2DRx[0].tcp.conn-41 tcpRcvQueueDrops:vector:count 0
scalar SingleCell_D2D.ueD2DRx[0].tcp.conn-41 tcpRcvQueueDrops:vector:sum 0
scalar SingleCell_D2D.ueD2DRx[0].tcp.conn-41 tcpRcvQueueDrops:vector:sumweights 0
scalar SingleCell_D2D.ueD2DRx[0].tcp.conn-41 tcpRcvQueueDrops:vector:mean -nan
scalar SingleCell_D2D.ueD2DRx[0].tcp.conn-41 tcpRcvQueueDrops:vector:stddev nan
scalar SingleCell_D2D.ueD2DRx[0].tcp.conn-41 tcpRcvQueueDrops:vector:min inf
scalar SingleCell_D2D.ueD2DRx[0].tcp.conn-41 tcpRcvQueueDrops:vector:max -inf
scalar SingleCell_D2D.ueD2DRx[0].tcp.conn-41 tcpRcvQueueDrops:vector:starttime nan
scalar SingleCell_D2D.ueD2DRx[0].tcp.conn-41 tcpRcvQueueDrops:vector:endtime nan
scalar SingleCell_D2D.ueD2DRx[0].tcp.conn-41 tcpRcvPayloadBytes:vector:count 2130
scalar SingleCell_D2D.ueD2DRx[0].tcp.conn-41 tcpRcvPayloadBytes:vector:sum 1141144
scalar SingleCell_D2D.ueD2DRx[0].tcp.conn-41 tcpRcvPayloadBytes:vector:sumweights 2130
scalar SingleCell_D2D.ueD2DRx[0].tcp.conn-41 tcpRcvPayloadBytes:vector:mean 535.74835680751175
scalar SingleCell_D2D.ueD2DRx[0].tcp.conn-41 tcpRcvPayloadBytes:vector:stddev 11.613817252468202
scalar SingleCell_D2D.ueD2DRx[0].tcp.conn-41 tcpRcvPayloadBytes:vector:min 0
scalar SingleCell_D2D.ueD2DRx[0].tcp.conn-41 tcpRcvPayloadBytes:vector:max 536
scalar SingleCell_D2D.ueD2DRx[0].tcp.conn-41 tcpRcvPayloadBytes:vector:starttime 0.10200000000000001
scalar SingleCell_D2D.ueD2DRx[0].tcp.conn-41 tcpRcvPayloadBytes:vector:endtime 4.9740000000000002
scalar SingleCell_D2D.ueD2DRx[0].tcp.conn-41 cwnd:vector:count 0
scalar SingleCell_D2D.ueD2DRx[0].tcp.conn-41 cwnd:vector:sum 0
scalar SingleCell_D2D.ueD2DRx[0].tcp.conn-41 cwnd:vector:sumweights 0
scalar SingleCell_D2D.ueD2DRx[0].tcp.conn-41 cwnd:vector:mean -nan
scalar SingleCell_D2D.ueD2DRx[0].tcp.conn-41 cwnd:vector:stddev nan
scalar SingleCell_D2D.ueD2DRx[0].tcp.conn-41 cwnd:vector:min inf
scalar SingleCell_D2D.ueD2DRx[0].tcp.conn-41 cwnd:vector:max -inf
scalar SingleCell_D2D.ueD2DRx[0].tcp.conn-41 cwnd:vector:starttime nan
scalar SingleCell_D2D.ueD2DRx[0].tcp.conn-41 cwnd:vector:endtime nan
scalar SingleCell_D2D.ueD2DRx[0].tcp.conn-41 ssthresh:vector:count 0
scalar SingleCell_D2D.ueD2DRx[0].tcp.conn-41 ssthresh:vector:sum 0
scalar SingleCell_D2D.ueD2DRx[0].tcp.conn-41 ssthresh:vector:sumweights 0
scalar SingleCell_D2D.ueD2DRx[0].tcp.conn-41 ssthresh:vector:mean -nan
scalar SingleCell_D2D.ueD2DRx[0].tcp.conn-41 ssthresh:vector:stddev nan
scalar SingleCell_D2D.ueD2DRx[0].tcp.conn-41 ssthresh:vector:min inf
scalar SingleCell_D2D.ueD2DRx[0].tcp.conn-41 ssthresh:vector:max -inf
scalar SingleCell_D2D.ueD2DRx[0].tcp.conn-41 ssthresh:vector:starttime nan
scalar SingleCell_D2D.ueD2DRx[0].tcp.conn-41 ssthresh:vector:endtime nan
scalar SingleCell_D2D.ueD2DRx[0].tcp.conn-41 rtt:vector:count 0
scalar SingleCell_D2D.ueD2DRx[0].tcp.conn-41 rtt:vector:sum 0
scalar SingleCell_D2D.ueD2DRx[0].tcp.conn-41 rtt:vector:sumweights 0
scalar SingleCell_D2D.ueD2DRx[0].tcp.conn-41 rtt:vector:mean -nan
scalar SingleCell_D2D.ueD2DRx[0].tcp.conn-41 rtt:vector:stddev nan
scalar SingleCell_D2D.ueD2DRx[0].tcp.conn-41 rtt:vector:min inf
scalar SingleCell_D2D.ueD2DRx[0].tcp.conn-41 rtt:vector:max -inf
scalar SingleCell_D2D.ueD2DRx[0].tcp.conn-41 rtt:vector:starttime nan
scalar SingleCell_D2D.ueD2DRx[0].tcp.conn-41 rtt:vector:endtime nan
scalar SingleCell_D2D.ueD2DRx[0].tcp.conn-41 srtt:vector:count 0
scalar SingleCell_D2D.ueD2DRx[0].tcp.conn-41 srtt:vector:sum 0
scalar SingleCell_D2D.ueD2DRx[0].tcp.conn-41 srtt:vector:sumweights 0
scalar SingleCell_D2D.ueD2DRx[0].tcp.conn-41 srtt:vector:mean -nan
scalar SingleCell_D2D.ueD2DRx[0].tcp.conn-41 srtt:vector:stddev nan
scalar SingleCell_D2D.ueD2DRx[0].tcp.conn-41 srtt:vector:min inf
scalar SingleCell_D2D.ueD2DRx[0].tcp.conn-41 srtt:vector:max -inf
scalar SingleCell_D2D.ueD2DRx[0].tcp.conn-41 srtt:vector:starttime nan
scalar SingleCell_D2D.ueD2DRx[0].tcp.conn-41 srtt:vector:endtime nan
scalar SingleCell_D2D.ueD2DRx[0].tcp.conn-41 rttvar:vector:count 0
scalar SingleCell_D2D.ueD2DRx[0].tcp.conn-41 rttvar:vector:sum 0
scalar SingleCell_D2D.ueD2DRx[0].tcp.conn-41 rttvar:vector:sumweights 0
scalar SingleCell_D2D.ueD2DRx[0].tcp.conn-41 rttvar:vector:mean -nan
scalar SingleCell_D2D.ueD2DRx[0].tcp.conn-41 rttvar:vector:stddev nan
scalar SingleCell_D2D.ueD2DRx[0].tcp.conn-41 rttvar:vector:min inf
scalar SingleCell_D2D.ueD2DRx[0].tcp.conn-41 rttvar:vector:max -inf
scalar SingleCell_D2D.ueD2DRx[0].tcp.conn-41 rttvar:vector:starttime nan
scalar SingleCell_D2D.ueD2DRx[0].tcp.conn-41 rttvar:vector:endtime nan
scalar SingleCell_D2D.ueD2DRx[0].tcp.conn-41 rto:vector:count 0
scalar SingleCell_D2D.ueD2DRx[0].tcp.conn-41 rto:vector:sum 0
scalar SingleCell_D2D.ueD2DRx[0].tcp.conn-41 rto:vector:sumweights 0
scalar SingleCell_D2D.ueD2DRx[0].tcp.conn-41 rto:vector:mean -nan
scalar SingleCell_D2D.ueD2DRx[0].tcp.conn-41 rto:vector:stddev nan
scalar SingleCell_D2D.ueD2DRx[0].tcp.conn-41 rto:vector:min inf
scalar SingleCell_D2D.ueD2DRx[0].tcp.conn-41 rto:vector:max -inf
scalar SingleCell_D2D.ueD2DRx[0].tcp.conn-41 rto:vector:starttime nan
scalar SingleCell_D2D.ueD2DRx[0].tcp.conn-41 rto:vector:endtime nan
scalar SingleCell_D2D.ueD2DRx[0].tcp.conn-41 numRtos:vector:count 0
scalar SingleCell_D2D.ueD2DRx[0].tcp.conn-41 numRtos:vector:sum 0
scalar SingleCell_D2D.ueD2DRx[0].tcp.conn-41 numRtos:vector:sumweights 0
scalar SingleCell_D2D.ueD2DRx[0].tcp.conn-41 numRtos:vector:mean -nan
scalar SingleCell_D2D.ueD2DRx[0].tcp.conn-41 numRtos:vector:stddev nan
scalar SingleCell_D2D.ueD2DRx[0].tcp.conn-41 numRtos:vector:min inf
scalar SingleCell_D2D.ueD2DRx[0].tcp.conn-41 numRtos:vector:max -inf
scalar SingleCell_D2D.ueD2DRx[0].tcp.conn-41 numRtos:vector:starttime nan
scalar SingleCell_D2D.ueD2DRx[0].tcp.conn-41 numRtos:vector:endtime nan
scalar SingleCell_D2D.ueD2DRx[0].tcp.conn-41 load:vector:count 0
scalar SingleCell_D2D.ueD2DRx[0].tcp.conn-41 load:vector:sum 0
scalar SingleCell_D2D.ueD2DRx[0].tcp.conn-41 load:vector:sumweights 0
scalar SingleCell_D2D.ueD2DRx[0].tcp.conn-41 load:vector:mean -nan
scalar SingleCell_D2D.ueD2DRx[0].tcp.conn-41 load:vector:stddev nan
scalar SingleCell_D2D.ueD2DRx[0].tcp.conn-41 load:vector:min inf
scalar SingleCell_D2D.ueD2DRx[0].tcp.conn-41 load:vector:max -inf
scalar SingleCell_D2D.ueD2DRx[0].tcp.conn-41 load:vector:starttime nan
scalar SingleCell_D2D.ueD2DRx[0].tcp.conn-41 load:vector:endtime nan
scalar SingleCell_D2D.ueD2DRx[0].tcp.conn-41 calcLoad:vector:count 0
scalar SingleCell_D2D.ueD2DRx[0].tcp.conn-41 calcLoad:vector:sum 0
scalar SingleCell_D2D.ueD2DRx[0].tcp.conn-41 calcLoad:vector:sumweights 0
scalar SingleCell_D2D.ueD2DRx[0].tcp.conn-41 calcLoad:vector:mean -nan
scalar SingleCell_D2D.ueD2DRx[0].tcp.conn-41 calcLoad:vector:stddev nan
scalar SingleCell_D2D.ueD2DRx[0].tcp.conn-41 calcLoad:vector:min inf
scalar SingleCell_D2D.ueD2DRx[0].tcp.conn-41 calcLoad:vector:max -inf
scalar SingleCell_D2D.ueD2DRx[0].tcp.conn-41 calcLoad:vector:starttime nan
scalar SingleCell_D2D.ueD2DRx[0].tcp.conn-41 calcLoad:vector:endtime nan
scalar SingleCell_D2D.ueD2DRx[0].tcp.conn-41 markingProb:vector:count 0
scalar SingleCell_D2D.ueD2DRx[0].tcp.conn-41 markingProb:vector:sum 0
scalar SingleCell_D2D.ueD2DRx[0].tcp.conn-41 markingProb:vector:sumweights 0
scalar SingleCell_D2D.ueD2DRx[0].tcp.conn-41 markingProb:vector:mean -nan
scalar SingleCell_D2D.ueD2DRx[0].tcp.conn-41 markingProb:vector:stddev nan
scalar SingleCell_D2D.ueD2DRx[0].tcp.conn-41 markingProb:vector:min inf
scalar SingleCell_D2D.ueD2DRx[0].tcp.conn-41 markingProb:vector:max -inf
scalar SingleCell_D2D.ueD2DRx[0].tcp.conn-41 markingProb:vector:starttime nan
scalar SingleCell_D2D.ueD2DRx[0].tcp.conn-41 markingProb:vector:endtime nan
scalar SingleCell_D2D.ueD2DRx[3].app[0].thread_40 packetReceived:vector(packetBytes):count 2031
scalar SingleCell_D2D.ueD2DRx[3].app[0].thread_40 packetReceived:vector(packetBytes):sum 1088616
scalar SingleCell_D2D.ueD2DRx[3].app[0].thread_40 packetReceived:vector(packetBytes):sumweights 2031
scalar SingleCell_D2D.ueD2DRx[3].app[0].thread_40 packetReceived:vector(packetBytes):mean 536
scalar SingleCell_D2D.ueD2DRx[3].app[0].thread_40 packetReceived:vector(packetBytes):stddev 0
scalar SingleCell_D2D.ueD2DRx[3].app[0].thread_40 packetReceived:vector(packetBytes):min 536
scalar SingleCell_D2D.ueD2DRx[3].app[0].thread_40 packetReceived:vector(packetBytes):max 536
scalar SingleCell_D2D.ueD2DRx[3].app[0].thread_40 packetReceived:vector(packetBytes):starttime 0.314
scalar SingleCell_D2D.ueD2DRx[3].app[0].thread_40 packetReceived:vector(packetBytes):endtime 4.9910000000000005
scalar SingleCell_D2D.ueD2DRx[3].app[0].thread_40 endToEndDelay:vector:count 2031
scalar SingleCell_D2D.ueD2DRx[3].app[0].thread_40 endToEndDelay:vector:sum 4928.1043482943705
scalar SingleCell_D2D.ueD2DRx[3].app[0].thread_40 endToEndDelay:vector:sumweights 2031
scalar SingleCell_D2D.ueD2DRx[3].app[0].thread_40 endToEndDelay:vector:mean 2.4264423182148551
scalar SingleCell_D2D.ueD2DRx[3].app[0].thread_40 endToEndDelay:vector:stddev 1.337200360379929
scalar SingleCell_D2D.ueD2DRx[3].app[0].thread_40 endToEndDelay:vector:min 0.014613170012
scalar SingleCell_D2D.ueD2DRx[3].app[0].thread_40 endToEndDelay:vector:max 4.6916131700120003
scalar SingleCell_D2D.ueD2DRx[3].app[0].thread_40 endToEndDelay:vector:starttime 0.314
scalar SingleCell_D2D.ueD2DRx[3].app[0].thread_40 endToEndDelay:vector:endtime 4.9910000000000005
scalar SingleCell_D2D.ueD2DRx[0].app[0].thread_41 packetReceived:vector(packetBytes):count 2129
scalar SingleCell_D2D.ueD2DRx[0].app[0].thread_41 packetReceived:vector(packetBytes):sum 1141144
scalar SingleCell_D2D.ueD2DRx[0].app[0].thread_41 packetReceived:vector(packetBytes):sumweights 2129
scalar SingleCell_D2D.ueD2DRx[0].app[0].thread_41 packetReceived:vector(packetBytes):mean 536
scalar SingleCell_D2D.ueD2DRx[0].app[0].thread_41 packetReceived:vector(packetBytes):stddev 0
scalar SingleCell_D2D.ueD2DRx[0].app[0].thread_41 packetReceived:vector(packetBytes):min 536
scalar SingleCell_D2D.ueD2DRx[0].app[0].thread_41 packetReceived:vector(packetBytes):max 536
scalar SingleCell_D2D.ueD2DRx[0].app[0].thread_41 packetReceived:vector(packetBytes):starttime 0.29299999999999998
scalar SingleCell_D2D.ueD2DRx[0].app[0].thread_41 packetReceived:vector(packetBytes):endtime 4.9740000000000002
scalar SingleCell_D2D.ueD2DRx[0].app[0].thread_41 endToEndDelay:vector:count 2129
scalar SingleCell_D2D.ueD2DRx[0].app[0].thread_41 endToEndDelay:vector:sum 5119.0603166983237
scalar SingleCell_D2D.ueD2DRx[0].app[0].thread_41 endToEndDelay:vector:sumweights 2129
scalar SingleCell_D2D.ueD2DRx[0].app[0].thread_41 endToEndDelay:vector:mean 2.4044435494120826
scalar SingleCell_D2D.ueD2DRx[0].app[0].thread_41 endToEndDelay:vector:stddev 1.337041812297203
scalar SingleCell_D2D.ueD2DRx[0].app[0].thread_41 endToEndDelay:vector:min 0.014785493986999999
scalar SingleCell_D2D.ueD2DRx[0].app[0].thread_41 endToEndDelay:vector:max 4.6957854939869996
scalar SingleCell_D2D.ueD2DRx[0].app[0].thread_41 endToEndDelay:vector:starttime 0.29299999999999998
scalar SingleCell_D2D.ueD2DRx[0].app[0].thread_41 endToEndDelay:vector:endtime 4.9740000000000002

