version 3
run SinglePair-TCP-D2D-0-20260710-13:58:27-780824
attr configname SinglePair-TCP-D2D
attr datetime 20260710-13:58:27
attr datetimef 20260710-135827
attr experiment SinglePair-TCP-D2D
attr inifile omnetpp.ini
attr iterationvars ""
attr iterationvarsd ""
attr iterationvarsf ""
attr measurement ""
attr network simu5g.simulations.lte.networks.SingleCell_D2D
attr processid 780824
attr repetition 0
attr replication #0
attr resultdir results
attr runnumber 0
attr seedset 0
config **.param-recording false
config image-path /home/andras/projects/Simu5G-fork/simu5g-fork/images
config output-scalar-file results/omnetpp.ini-SinglePair-TCP-D2D-#0.sca
config output-scalar-precision 17
config output-vector-file results/omnetpp.ini-SinglePair-TCP-D2D-#0.vec
config output-vector-precision 17
config record-eventlog false
config sim-time-limit 5s
config extends SinglePair-TCP-Infra
config *.eNB*.cellularNic.typename LteNicEnbD2D
config *.ueD2D*[*].cellularNic.typename LteNicUeD2D
config **.amcMode "\"D2D\""
config *.ueD2D*[*].cellularNic.d2dInitialMode true
config *.eNB.cellularNic.phy.enableD2DCqiReporting true
config **.usePreconfiguredTxParams false
config **.d2dCqi 7
config extends SinglePair
config *.ueD2D*[0].numApps 1
config *.ueD2DTx[0].app[*].typename TcpSessionApp
config *.ueD2DTx[0].app[0].connectPort 1000
config *.ueD2DTx[0].app[*].localPort 1000
config *.ueD2DTx[0].app[*].sendBytes 1GiB
config *.ueD2DTx[0].app[0].active true
config *.ueD2DTx[0].app[0].tOpen uniform(0.010s,0.1s)
config *.ueD2DTx[0].app[0].tSend uniform(0.15s,0.5s)
config *.ueD2DTx[0].app[0].connectAddress "\"ueD2DRx[0]\""
config *.ueD2DTx[0].app[0].localAddress "\"ueD2DTx[0]\""
config *.ueD2DRx[0].app[*].typename TcpSinkApp
config *.ueD2DRx[0].app[*].localPort 1000
config **.app[*].tClose -1s
config *.eNB*.cellularNic.typename LteNicEnb
config *.ueD2D*[*].cellularNic.typename LteNicUe
config **.amcMode "\"AUTO\""
config network simu5g.simulations.lte.networks.SingleCell_D2D
config *.eNB.mobility.initFromDisplayString false
config *.eNB.mobility.initialX 300m
config *.eNB.mobility.initialY 300m
config *.numUeCell 0
config *.numUeD2DTx 1
config *.numUeD2DRx 1
config *.ue*[0].servingNodeId 1
config *.ue*[0].mobility.initFromDisplayString false
config *.ueD2DTx[0].mobility.initialX 290m
config *.ueD2DTx[0].mobility.initialY 350m
config *.ueD2DRx[0].mobility.initialX 310m
config *.ueD2DRx[0].mobility.initialY 350m
config sim-time-limit 5s
config warmup-period 0s
config repeat 3
config **.routingRecorder.enabled false
config output-scalar-file results/SinglePair-TCP-D2D/0.sca
config output-vector-file results/SinglePair-TCP-D2D/0.vec
config seed-set 0
config **.vector-recording true
config **.mobility.constraintAreaMinZ 0m
config **.mobility.constraintAreaMaxZ 0m
config **.numBands 50
config *.configurator.config "xmldoc(\"./demo.xml\")"

scalar SingleCell_D2D.server.lo[0].lo rcvdPkFromHl:count 0
scalar SingleCell_D2D.server.lo[0].lo rcvdPkFromHl:sum(packetBytes) 0
scalar SingleCell_D2D.server.lo[0].lo passedUpPk:count 0
scalar SingleCell_D2D.server.lo[0].lo passedUpPk:sum(packetBytes) 0
scalar SingleCell_D2D.server.lo[0] packetDropInterfaceDown:count 0
scalar SingleCell_D2D.server.lo[0] packetDropInterfaceDown:sum(packetBytes) 0
scalar SingleCell_D2D.server.lo[0] packetDropNoCarrier:count 0
scalar SingleCell_D2D.server.lo[0] packetDropNoCarrier:sum(packetBytes) 0
scalar SingleCell_D2D.server.ppp[0].queue queueLength:last 0
scalar SingleCell_D2D.server.ppp[0].queue queueLength:max 0
scalar SingleCell_D2D.server.ppp[0].queue queueLength:timeavg 0
scalar SingleCell_D2D.server.ppp[0].queue queueBitLength:last 0
scalar SingleCell_D2D.server.ppp[0].queue queueBitLength:max 0
scalar SingleCell_D2D.server.ppp[0].queue queueBitLength:timeavg 0
scalar SingleCell_D2D.server.ppp[0].queue outgoingPackets:count 0
scalar SingleCell_D2D.server.ppp[0].queue outgoingPacketLengths:sum 0
scalar SingleCell_D2D.server.ppp[0].queue incomingPackets:count 0
scalar SingleCell_D2D.server.ppp[0].queue incomingPacketLengths:sum 0
scalar SingleCell_D2D.server.ppp[0].queue droppedPacketsQueueOverflow:count 0
scalar SingleCell_D2D.server.ppp[0].queue droppedPacketLengthsQueueOverflow:sum 0
scalar SingleCell_D2D.server.ppp[0].ppp transmissionState:timeavg 0
scalar SingleCell_D2D.server.ppp[0].ppp rxPkOk:count 0
scalar SingleCell_D2D.server.ppp[0].ppp rxPkOk:sum(packetBytes) 0
scalar SingleCell_D2D.server.ppp[0].ppp txPk:count 0
scalar SingleCell_D2D.server.ppp[0].ppp txPk:sum(packetBytes) 0
scalar SingleCell_D2D.server.ppp[0].ppp rcvdPkFromHl:count 0
scalar SingleCell_D2D.server.ppp[0].ppp rcvdPkFromHl:sum(packetBytes) 0
scalar SingleCell_D2D.server.ppp[0].ppp passedUpPk:count 0
scalar SingleCell_D2D.server.ppp[0].ppp passedUpPk:sum(packetBytes) 0
scalar SingleCell_D2D.server.ppp[0].ppp packetDropIncorrectlyReceived:count 0
scalar SingleCell_D2D.server.ppp[0].ppp packetDropIncorrectlyReceived:sum(packetBytes) 0
scalar SingleCell_D2D.server.ppp[0].ppp packetDropInterfaceDown:count 0
scalar SingleCell_D2D.server.ppp[0].ppp packetDropInterfaceDown:sum(packetBytes) 0
scalar SingleCell_D2D.server.ppp[0] packetDropInterfaceDown:count 0
scalar SingleCell_D2D.server.ppp[0] packetDropInterfaceDown:sum(packetBytes) 0
scalar SingleCell_D2D.server.ppp[0] packetDropNoCarrier:count 0
scalar SingleCell_D2D.server.ppp[0] packetDropNoCarrier:sum(packetBytes) 0
scalar SingleCell_D2D.server.ipv4.ip packetDropAddressResolutionFailed:count 0
scalar SingleCell_D2D.server.ipv4.ip packetDropAddressResolutionFailed:sum(packetBytes) 0
scalar SingleCell_D2D.server.ipv4.ip packetDropHopLimitReached:count 0
scalar SingleCell_D2D.server.ipv4.ip packetDropHopLimitReached:sum(packetBytes) 0
scalar SingleCell_D2D.server.ipv4.ip packetDropForwardingDisabled:count 0
scalar SingleCell_D2D.server.ipv4.ip packetDropForwardingDisabled:sum(packetBytes) 0
scalar SingleCell_D2D.server.ipv4.ip packetDropNoInterfaceFound:count 0
scalar SingleCell_D2D.server.ipv4.ip packetDropNoInterfaceFound:sum(packetBytes) 0
scalar SingleCell_D2D.server.ipv4.ip packetDropNoRouteFound:count 0
scalar SingleCell_D2D.server.ipv4.ip packetDropNoRouteFound:sum(packetBytes) 0
scalar SingleCell_D2D.server.ipv4.ip packetDropUndefined:count 0
scalar SingleCell_D2D.server.ipv4.ip packetDropUndefined:sum(packetBytes) 0
scalar SingleCell_D2D.server.ipv4.arp arpResolutionFailed:count 0
scalar SingleCell_D2D.server.ipv4.arp arpResolutionCompleted:count 0
scalar SingleCell_D2D.server.ipv4.arp arpResolutionInitiated:count 0
scalar SingleCell_D2D.server.ipv4.arp arpReplySent:count 0
scalar SingleCell_D2D.server.ipv4.arp arpReplySent:sum(packetBytes) 0
scalar SingleCell_D2D.server.ipv4.arp arpRequestSent:count 0
scalar SingleCell_D2D.server.ipv4.arp arpRequestSent:sum(packetBytes) 0
scalar SingleCell_D2D.server.udp packetReceived:count 0
scalar SingleCell_D2D.server.udp packetReceived:sum(packetBytes) 0
scalar SingleCell_D2D.server.udp packetSent:count 0
scalar SingleCell_D2D.server.udp packetSent:sum(packetBytes) 0
scalar SingleCell_D2D.server.udp passedUpPk:count 0
scalar SingleCell_D2D.server.udp droppedPkWrongPort:count 0
scalar SingleCell_D2D.server.udp droppedPkBadChecksum:count 0
scalar SingleCell_D2D.router.lo[0].lo rcvdPkFromHl:count 0
scalar SingleCell_D2D.router.lo[0].lo rcvdPkFromHl:sum(packetBytes) 0
scalar SingleCell_D2D.router.lo[0].lo passedUpPk:count 0
scalar SingleCell_D2D.router.lo[0].lo passedUpPk:sum(packetBytes) 0
scalar SingleCell_D2D.router.lo[0] packetDropInterfaceDown:count 0
scalar SingleCell_D2D.router.lo[0] packetDropInterfaceDown:sum(packetBytes) 0
scalar SingleCell_D2D.router.lo[0] packetDropNoCarrier:count 0
scalar SingleCell_D2D.router.lo[0] packetDropNoCarrier:sum(packetBytes) 0
scalar SingleCell_D2D.router.ppp[0].queue queueLength:last 0
scalar SingleCell_D2D.router.ppp[0].queue queueLength:max 0
scalar SingleCell_D2D.router.ppp[0].queue queueLength:timeavg 0
scalar SingleCell_D2D.router.ppp[0].queue queueBitLength:last 0
scalar SingleCell_D2D.router.ppp[0].queue queueBitLength:max 0
scalar SingleCell_D2D.router.ppp[0].queue queueBitLength:timeavg 0
scalar SingleCell_D2D.router.ppp[0].queue outgoingPackets:count 0
scalar SingleCell_D2D.router.ppp[0].queue outgoingPacketLengths:sum 0
scalar SingleCell_D2D.router.ppp[0].queue incomingPackets:count 0
scalar SingleCell_D2D.router.ppp[0].queue incomingPacketLengths:sum 0
scalar SingleCell_D2D.router.ppp[0].queue droppedPacketsQueueOverflow:count 0
scalar SingleCell_D2D.router.ppp[0].queue droppedPacketLengthsQueueOverflow:sum 0
scalar SingleCell_D2D.router.ppp[0].ppp transmissionState:timeavg 0
scalar SingleCell_D2D.router.ppp[0].ppp rxPkOk:count 0
scalar SingleCell_D2D.router.ppp[0].ppp rxPkOk:sum(packetBytes) 0
scalar SingleCell_D2D.router.ppp[0].ppp txPk:count 0
scalar SingleCell_D2D.router.ppp[0].ppp txPk:sum(packetBytes) 0
scalar SingleCell_D2D.router.ppp[0].ppp rcvdPkFromHl:count 0
scalar SingleCell_D2D.router.ppp[0].ppp rcvdPkFromHl:sum(packetBytes) 0
scalar SingleCell_D2D.router.ppp[0].ppp passedUpPk:count 0
scalar SingleCell_D2D.router.ppp[0].ppp passedUpPk:sum(packetBytes) 0
scalar SingleCell_D2D.router.ppp[0].ppp packetDropIncorrectlyReceived:count 0
scalar SingleCell_D2D.router.ppp[0].ppp packetDropIncorrectlyReceived:sum(packetBytes) 0
scalar SingleCell_D2D.router.ppp[0].ppp packetDropInterfaceDown:count 0
scalar SingleCell_D2D.router.ppp[0].ppp packetDropInterfaceDown:sum(packetBytes) 0
scalar SingleCell_D2D.router.ppp[0] packetDropInterfaceDown:count 0
scalar SingleCell_D2D.router.ppp[0] packetDropInterfaceDown:sum(packetBytes) 0
scalar SingleCell_D2D.router.ppp[0] packetDropNoCarrier:count 0
scalar SingleCell_D2D.router.ppp[0] packetDropNoCarrier:sum(packetBytes) 0
scalar SingleCell_D2D.router.ppp[1].queue queueLength:last 0
scalar SingleCell_D2D.router.ppp[1].queue queueLength:max 0
scalar SingleCell_D2D.router.ppp[1].queue queueLength:timeavg 0
scalar SingleCell_D2D.router.ppp[1].queue queueBitLength:last 0
scalar SingleCell_D2D.router.ppp[1].queue queueBitLength:max 0
scalar SingleCell_D2D.router.ppp[1].queue queueBitLength:timeavg 0
scalar SingleCell_D2D.router.ppp[1].queue outgoingPackets:count 0
scalar SingleCell_D2D.router.ppp[1].queue outgoingPacketLengths:sum 0
scalar SingleCell_D2D.router.ppp[1].queue incomingPackets:count 0
scalar SingleCell_D2D.router.ppp[1].queue incomingPacketLengths:sum 0
scalar SingleCell_D2D.router.ppp[1].queue droppedPacketsQueueOverflow:count 0
scalar SingleCell_D2D.router.ppp[1].queue droppedPacketLengthsQueueOverflow:sum 0
scalar SingleCell_D2D.router.ppp[1].ppp transmissionState:timeavg 0
scalar SingleCell_D2D.router.ppp[1].ppp rxPkOk:count 0
scalar SingleCell_D2D.router.ppp[1].ppp rxPkOk:sum(packetBytes) 0
scalar SingleCell_D2D.router.ppp[1].ppp txPk:count 0
scalar SingleCell_D2D.router.ppp[1].ppp txPk:sum(packetBytes) 0
scalar SingleCell_D2D.router.ppp[1].ppp rcvdPkFromHl:count 0
scalar SingleCell_D2D.router.ppp[1].ppp rcvdPkFromHl:sum(packetBytes) 0
scalar SingleCell_D2D.router.ppp[1].ppp passedUpPk:count 0
scalar SingleCell_D2D.router.ppp[1].ppp passedUpPk:sum(packetBytes) 0
scalar SingleCell_D2D.router.ppp[1].ppp packetDropIncorrectlyReceived:count 0
scalar SingleCell_D2D.router.ppp[1].ppp packetDropIncorrectlyReceived:sum(packetBytes) 0
scalar SingleCell_D2D.router.ppp[1].ppp packetDropInterfaceDown:count 0
scalar SingleCell_D2D.router.ppp[1].ppp packetDropInterfaceDown:sum(packetBytes) 0
scalar SingleCell_D2D.router.ppp[1] packetDropInterfaceDown:count 0
scalar SingleCell_D2D.router.ppp[1] packetDropInterfaceDown:sum(packetBytes) 0
scalar SingleCell_D2D.router.ppp[1] packetDropNoCarrier:count 0
scalar SingleCell_D2D.router.ppp[1] packetDropNoCarrier:sum(packetBytes) 0
scalar SingleCell_D2D.router.ipv4.ip packetDropAddressResolutionFailed:count 0
scalar SingleCell_D2D.router.ipv4.ip packetDropAddressResolutionFailed:sum(packetBytes) 0
scalar SingleCell_D2D.router.ipv4.ip packetDropHopLimitReached:count 0
scalar SingleCell_D2D.router.ipv4.ip packetDropHopLimitReached:sum(packetBytes) 0
scalar SingleCell_D2D.router.ipv4.ip packetDropForwardingDisabled:count 0
scalar SingleCell_D2D.router.ipv4.ip packetDropForwardingDisabled:sum(packetBytes) 0
scalar SingleCell_D2D.router.ipv4.ip packetDropNoInterfaceFound:count 0
scalar SingleCell_D2D.router.ipv4.ip packetDropNoInterfaceFound:sum(packetBytes) 0
scalar SingleCell_D2D.router.ipv4.ip packetDropNoRouteFound:count 0
scalar SingleCell_D2D.router.ipv4.ip packetDropNoRouteFound:sum(packetBytes) 0
scalar SingleCell_D2D.router.ipv4.ip packetDropUndefined:count 0
scalar SingleCell_D2D.router.ipv4.ip packetDropUndefined:sum(packetBytes) 0
scalar SingleCell_D2D.router.ipv4.arp arpResolutionFailed:count 0
scalar SingleCell_D2D.router.ipv4.arp arpResolutionCompleted:count 0
scalar SingleCell_D2D.router.ipv4.arp arpResolutionInitiated:count 0
scalar SingleCell_D2D.router.ipv4.arp arpReplySent:count 0
scalar SingleCell_D2D.router.ipv4.arp arpReplySent:sum(packetBytes) 0
scalar SingleCell_D2D.router.ipv4.arp arpRequestSent:count 0
scalar SingleCell_D2D.router.ipv4.arp arpRequestSent:sum(packetBytes) 0
scalar SingleCell_D2D.pgw.lo[0].lo rcvdPkFromHl:count 0
scalar SingleCell_D2D.pgw.lo[0].lo rcvdPkFromHl:sum(packetBytes) 0
scalar SingleCell_D2D.pgw.lo[0].lo passedUpPk:count 0
scalar SingleCell_D2D.pgw.lo[0].lo passedUpPk:sum(packetBytes) 0
scalar SingleCell_D2D.pgw.lo[0] packetDropInterfaceDown:count 0
scalar SingleCell_D2D.pgw.lo[0] packetDropInterfaceDown:sum(packetBytes) 0
scalar SingleCell_D2D.pgw.lo[0] packetDropNoCarrier:count 0
scalar SingleCell_D2D.pgw.lo[0] packetDropNoCarrier:sum(packetBytes) 0
scalar SingleCell_D2D.pgw.ppp[0].queue queueLength:last 0
scalar SingleCell_D2D.pgw.ppp[0].queue queueLength:max 0
scalar SingleCell_D2D.pgw.ppp[0].queue queueLength:timeavg 0
scalar SingleCell_D2D.pgw.ppp[0].queue queueBitLength:last 0
scalar SingleCell_D2D.pgw.ppp[0].queue queueBitLength:max 0
scalar SingleCell_D2D.pgw.ppp[0].queue queueBitLength:timeavg 0
scalar SingleCell_D2D.pgw.ppp[0].queue outgoingPackets:count 0
scalar SingleCell_D2D.pgw.ppp[0].queue outgoingPacketLengths:sum 0
scalar SingleCell_D2D.pgw.ppp[0].queue incomingPackets:count 0
scalar SingleCell_D2D.pgw.ppp[0].queue incomingPacketLengths:sum 0
scalar SingleCell_D2D.pgw.ppp[0].queue droppedPacketsQueueOverflow:count 0
scalar SingleCell_D2D.pgw.ppp[0].queue droppedPacketLengthsQueueOverflow:sum 0
scalar SingleCell_D2D.pgw.ppp[0].ppp transmissionState:timeavg 0
scalar SingleCell_D2D.pgw.ppp[0].ppp rxPkOk:count 0
scalar SingleCell_D2D.pgw.ppp[0].ppp rxPkOk:sum(packetBytes) 0
scalar SingleCell_D2D.pgw.ppp[0].ppp txPk:count 0
scalar SingleCell_D2D.pgw.ppp[0].ppp txPk:sum(packetBytes) 0
scalar SingleCell_D2D.pgw.ppp[0].ppp rcvdPkFromHl:count 0
scalar SingleCell_D2D.pgw.ppp[0].ppp rcvdPkFromHl:sum(packetBytes) 0
scalar SingleCell_D2D.pgw.ppp[0].ppp passedUpPk:count 0
scalar SingleCell_D2D.pgw.ppp[0].ppp passedUpPk:sum(packetBytes) 0
scalar SingleCell_D2D.pgw.ppp[0].ppp packetDropIncorrectlyReceived:count 0
scalar SingleCell_D2D.pgw.ppp[0].ppp packetDropIncorrectlyReceived:sum(packetBytes) 0
scalar SingleCell_D2D.pgw.ppp[0].ppp packetDropInterfaceDown:count 0
scalar SingleCell_D2D.pgw.ppp[0].ppp packetDropInterfaceDown:sum(packetBytes) 0
scalar SingleCell_D2D.pgw.ppp[0] packetDropInterfaceDown:count 0
scalar SingleCell_D2D.pgw.ppp[0] packetDropInterfaceDown:sum(packetBytes) 0
scalar SingleCell_D2D.pgw.ppp[0] packetDropNoCarrier:count 0
scalar SingleCell_D2D.pgw.ppp[0] packetDropNoCarrier:sum(packetBytes) 0
scalar SingleCell_D2D.pgw.ipv4.ip packetDropAddressResolutionFailed:count 0
scalar SingleCell_D2D.pgw.ipv4.ip packetDropAddressResolutionFailed:sum(packetBytes) 0
scalar SingleCell_D2D.pgw.ipv4.ip packetDropHopLimitReached:count 0
scalar SingleCell_D2D.pgw.ipv4.ip packetDropHopLimitReached:sum(packetBytes) 0
scalar SingleCell_D2D.pgw.ipv4.ip packetDropForwardingDisabled:count 0
scalar SingleCell_D2D.pgw.ipv4.ip packetDropForwardingDisabled:sum(packetBytes) 0
scalar SingleCell_D2D.pgw.ipv4.ip packetDropNoInterfaceFound:count 0
scalar SingleCell_D2D.pgw.ipv4.ip packetDropNoInterfaceFound:sum(packetBytes) 0
scalar SingleCell_D2D.pgw.ipv4.ip packetDropNoRouteFound:count 0
scalar SingleCell_D2D.pgw.ipv4.ip packetDropNoRouteFound:sum(packetBytes) 0
scalar SingleCell_D2D.pgw.ipv4.ip packetDropUndefined:count 0
scalar SingleCell_D2D.pgw.ipv4.ip packetDropUndefined:sum(packetBytes) 0
scalar SingleCell_D2D.pgw.ipv4.arp arpResolutionFailed:count 0
scalar SingleCell_D2D.pgw.ipv4.arp arpResolutionCompleted:count 0
scalar SingleCell_D2D.pgw.ipv4.arp arpResolutionInitiated:count 0
scalar SingleCell_D2D.pgw.ipv4.arp arpReplySent:count 0
scalar SingleCell_D2D.pgw.ipv4.arp arpReplySent:sum(packetBytes) 0
scalar SingleCell_D2D.pgw.ipv4.arp arpRequestSent:count 0
scalar SingleCell_D2D.pgw.ipv4.arp arpRequestSent:sum(packetBytes) 0
scalar SingleCell_D2D.pgw.pppIf.queue queueLength:last 0
scalar SingleCell_D2D.pgw.pppIf.queue queueLength:max 0
scalar SingleCell_D2D.pgw.pppIf.queue queueLength:timeavg 0
scalar SingleCell_D2D.pgw.pppIf.queue queueBitLength:last 0
scalar SingleCell_D2D.pgw.pppIf.queue queueBitLength:max 0
scalar SingleCell_D2D.pgw.pppIf.queue queueBitLength:timeavg 0
scalar SingleCell_D2D.pgw.pppIf.queue outgoingPackets:count 0
scalar SingleCell_D2D.pgw.pppIf.queue outgoingPacketLengths:sum 0
scalar SingleCell_D2D.pgw.pppIf.queue incomingPackets:count 0
scalar SingleCell_D2D.pgw.pppIf.queue incomingPacketLengths:sum 0
scalar SingleCell_D2D.pgw.pppIf.queue droppedPacketsQueueOverflow:count 0
scalar SingleCell_D2D.pgw.pppIf.queue droppedPacketLengthsQueueOverflow:sum 0
scalar SingleCell_D2D.pgw.pppIf.ppp transmissionState:timeavg 0
scalar SingleCell_D2D.pgw.pppIf.ppp rxPkOk:count 0
scalar SingleCell_D2D.pgw.pppIf.ppp rxPkOk:sum(packetBytes) 0
scalar SingleCell_D2D.pgw.pppIf.ppp txPk:count 0
scalar SingleCell_D2D.pgw.pppIf.ppp txPk:sum(packetBytes) 0
scalar SingleCell_D2D.pgw.pppIf.ppp rcvdPkFromHl:count 0
scalar SingleCell_D2D.pgw.pppIf.ppp rcvdPkFromHl:sum(packetBytes) 0
scalar SingleCell_D2D.pgw.pppIf.ppp passedUpPk:count 0
scalar SingleCell_D2D.pgw.pppIf.ppp passedUpPk:sum(packetBytes) 0
scalar SingleCell_D2D.pgw.pppIf.ppp packetDropIncorrectlyReceived:count 0
scalar SingleCell_D2D.pgw.pppIf.ppp packetDropIncorrectlyReceived:sum(packetBytes) 0
scalar SingleCell_D2D.pgw.pppIf.ppp packetDropInterfaceDown:count 0
scalar SingleCell_D2D.pgw.pppIf.ppp packetDropInterfaceDown:sum(packetBytes) 0
scalar SingleCell_D2D.pgw.pppIf packetDropInterfaceDown:count 0
scalar SingleCell_D2D.pgw.pppIf packetDropInterfaceDown:sum(packetBytes) 0
scalar SingleCell_D2D.pgw.pppIf packetDropNoCarrier:count 0
scalar SingleCell_D2D.pgw.pppIf packetDropNoCarrier:sum(packetBytes) 0
scalar SingleCell_D2D.pgw.udp packetReceived:count 0
scalar SingleCell_D2D.pgw.udp packetReceived:sum(packetBytes) 0
scalar SingleCell_D2D.pgw.udp packetSent:count 0
scalar SingleCell_D2D.pgw.udp packetSent:sum(packetBytes) 0
scalar SingleCell_D2D.pgw.udp passedUpPk:count 0
scalar SingleCell_D2D.pgw.udp droppedPkWrongPort:count 0
scalar SingleCell_D2D.pgw.udp droppedPkBadChecksum:count 0
scalar SingleCell_D2D.eNB.cellularNic.pdcp sentPacketToLowerLayer:count 0
scalar SingleCell_D2D.eNB.cellularNic.pdcp sentPacketToLowerLayer:sum(packetBytes) 0
scalar SingleCell_D2D.eNB.cellularNic.pdcp sentPacketToUpperLayer:count 0
scalar SingleCell_D2D.eNB.cellularNic.pdcp sentPacketToUpperLayer:sum(packetBytes) 0
scalar SingleCell_D2D.eNB.cellularNic.pdcp receivedPacketFromLowerLayer:count 0
scalar SingleCell_D2D.eNB.cellularNic.pdcp receivedPacketFromLowerLayer:sum(packetBytes) 0
scalar SingleCell_D2D.eNB.cellularNic.pdcp receivedPacketFromUpperLayer:count 0
scalar SingleCell_D2D.eNB.cellularNic.pdcp receivedPacketFromUpperLayer:sum(packetBytes) 0
scalar SingleCell_D2D.eNB.cellularNic.rlc.tm rlcPacketLossUl:mean -nan
scalar SingleCell_D2D.eNB.cellularNic.rlc.tm rlcPacketLossUl:sum 0
scalar SingleCell_D2D.eNB.cellularNic.rlc.tm rlcPacketLossDl:mean -nan
scalar SingleCell_D2D.eNB.cellularNic.rlc.tm rlcPacketLossDl:sum 0
scalar SingleCell_D2D.eNB.cellularNic.rlc.tm sentPacketToLowerLayer:count 0
scalar SingleCell_D2D.eNB.cellularNic.rlc.tm sentPacketToLowerLayer:sum(packetBytes) 0
scalar SingleCell_D2D.eNB.cellularNic.rlc.tm sentPacketToUpperLayer:count 0
scalar SingleCell_D2D.eNB.cellularNic.rlc.tm sentPacketToUpperLayer:sum(packetBytes) 0
scalar SingleCell_D2D.eNB.cellularNic.rlc.tm receivedPacketFromLowerLayer:count 0
scalar SingleCell_D2D.eNB.cellularNic.rlc.tm receivedPacketFromLowerLayer:sum(packetBytes) 0
scalar SingleCell_D2D.eNB.cellularNic.rlc.tm receivedPacketFromUpperLayer:count 0
scalar SingleCell_D2D.eNB.cellularNic.rlc.tm receivedPacketFromUpperLayer:sum(packetBytes) 0
scalar SingleCell_D2D.eNB.cellularNic.rlc.um rlcCellThroughputD2D:simu5g_rateavg -nan
scalar SingleCell_D2D.eNB.cellularNic.rlc.um rlcPduThroughputD2D:simu5g_rateavg -nan
scalar SingleCell_D2D.eNB.cellularNic.rlc.um rlcPduDelayD2D:mean -nan
scalar SingleCell_D2D.eNB.cellularNic.rlc.um rlcThroughputD2D:simu5g_rateavg -nan
scalar SingleCell_D2D.eNB.cellularNic.rlc.um rlcDelayD2D:mean -nan
scalar SingleCell_D2D.eNB.cellularNic.rlc.um rlcCellThroughputUl:simu5g_rateavg -nan
scalar SingleCell_D2D.eNB.cellularNic.rlc.um rlcCellThroughputDl:simu5g_rateavg 184484.61694487609
scalar SingleCell_D2D.eNB.cellularNic.rlc.um rlcPduThroughputUl:simu5g_rateavg -nan
scalar SingleCell_D2D.eNB.cellularNic.rlc.um rlcPduThroughputDl:simu5g_rateavg -nan
scalar SingleCell_D2D.eNB.cellularNic.rlc.um rlcPduDelayUl:mean -nan
scalar SingleCell_D2D.eNB.cellularNic.rlc.um rlcPduDelayDl:mean -nan
scalar SingleCell_D2D.eNB.cellularNic.rlc.um rlcThroughputUl:simu5g_rateavg -nan
scalar SingleCell_D2D.eNB.cellularNic.rlc.um rlcThroughputDl:simu5g_rateavg -nan
scalar SingleCell_D2D.eNB.cellularNic.rlc.um rlcDelayUl:mean -nan
scalar SingleCell_D2D.eNB.cellularNic.rlc.um rlcDelayDl:mean -nan
scalar SingleCell_D2D.eNB.cellularNic.rlc.um sentPacketToLowerLayer:count 0
scalar SingleCell_D2D.eNB.cellularNic.rlc.um sentPacketToLowerLayer:sum(packetBytes) 0
scalar SingleCell_D2D.eNB.cellularNic.rlc.um sentPacketToUpperLayer:count 0
scalar SingleCell_D2D.eNB.cellularNic.rlc.um sentPacketToUpperLayer:sum(packetBytes) 0
scalar SingleCell_D2D.eNB.cellularNic.rlc.um receivedPacketFromLowerLayer:count 0
scalar SingleCell_D2D.eNB.cellularNic.rlc.um receivedPacketFromLowerLayer:sum(packetBytes) 0
scalar SingleCell_D2D.eNB.cellularNic.rlc.um receivedPacketFromUpperLayer:count 0
scalar SingleCell_D2D.eNB.cellularNic.rlc.um receivedPacketFromUpperLayer:sum(packetBytes) 0
scalar SingleCell_D2D.eNB.cellularNic.rlc.am rlcPacketLossTotal:mean -nan
scalar SingleCell_D2D.eNB.cellularNic.rlc.am rlcCellThroughputUl:simu5g_rateavg -nan
scalar SingleCell_D2D.eNB.cellularNic.rlc.am rlcCellThroughputDl:simu5g_rateavg -nan
scalar SingleCell_D2D.eNB.cellularNic.rlc.am rlcPduThroughputUl:simu5g_rateavg -nan
scalar SingleCell_D2D.eNB.cellularNic.rlc.am rlcPduThroughputDl:simu5g_rateavg -nan
scalar SingleCell_D2D.eNB.cellularNic.rlc.am rlcPduDelayUl:mean -nan
scalar SingleCell_D2D.eNB.cellularNic.rlc.am rlcPduDelayDl:mean -nan
scalar SingleCell_D2D.eNB.cellularNic.rlc.am rlcThroughputUl:simu5g_rateavg -nan
scalar SingleCell_D2D.eNB.cellularNic.rlc.am rlcThroughputDl:simu5g_rateavg -nan
scalar SingleCell_D2D.eNB.cellularNic.rlc.am rlcDelayUl:mean -nan
scalar SingleCell_D2D.eNB.cellularNic.rlc.am rlcDelayDl:mean -nan
scalar SingleCell_D2D.eNB.cellularNic.rlc.am rlcPduPacketLossUl:mean -nan
scalar SingleCell_D2D.eNB.cellularNic.rlc.am rlcPduPacketLossDl:mean -nan
scalar SingleCell_D2D.eNB.cellularNic.rlc.am rlcPacketLossUl:mean -nan
scalar SingleCell_D2D.eNB.cellularNic.rlc.am rlcPacketLossDl:mean -nan
scalar SingleCell_D2D.eNB.cellularNic.rlc.am rlcCellPacketLossUl:mean -nan
scalar SingleCell_D2D.eNB.cellularNic.rlc.am rlcCellPacketLossDl:mean -nan
scalar SingleCell_D2D.eNB.cellularNic.mac avgServedBlocksUl:mean 5.9269999999999996
scalar SingleCell_D2D.eNB.cellularNic.mac avgServedBlocksDl:mean 0
scalar SingleCell_D2D.eNB.cellularNic.mac macCellPacketLossD2D:mean 0
scalar SingleCell_D2D.eNB.cellularNic.mac macCellThroughputD2D:simu5g_rateavg 185946.47700831189
scalar SingleCell_D2D.eNB.cellularNic.mac harqTxAttemptsUl:mean -nan
scalar SingleCell_D2D.eNB.cellularNic.mac harqTxAttemptsDl:mean -nan
scalar SingleCell_D2D.eNB.cellularNic.mac harqErrorRate_4th_Ul:mean -nan
scalar SingleCell_D2D.eNB.cellularNic.mac harqErrorRate_4th_Dl:mean -nan
scalar SingleCell_D2D.eNB.cellularNic.mac harqErrorRate_3rd_Ul:mean -nan
scalar SingleCell_D2D.eNB.cellularNic.mac harqErrorRate_3rd_Dl:mean -nan
scalar SingleCell_D2D.eNB.cellularNic.mac harqErrorRate_2nd_Ul:mean -nan
scalar SingleCell_D2D.eNB.cellularNic.mac harqErrorRate_2nd_Dl:mean -nan
scalar SingleCell_D2D.eNB.cellularNic.mac harqErrorRate_1st_Ul:mean -nan
scalar SingleCell_D2D.eNB.cellularNic.mac harqErrorRate_1st_Dl:mean -nan
scalar SingleCell_D2D.eNB.cellularNic.mac harqErrorRateUl:mean -nan
scalar SingleCell_D2D.eNB.cellularNic.mac harqErrorRateDl:mean -nan
scalar SingleCell_D2D.eNB.cellularNic.mac macCellPacketLossUl:mean 0
scalar SingleCell_D2D.eNB.cellularNic.mac macCellPacketLossDl:mean -nan
scalar SingleCell_D2D.eNB.cellularNic.mac macPacketLossUl:mean -nan
scalar SingleCell_D2D.eNB.cellularNic.mac macPacketLossDl:mean -nan
scalar SingleCell_D2D.eNB.cellularNic.mac macThroughputUl:simu5g_rateavg -nan
scalar SingleCell_D2D.eNB.cellularNic.mac macThroughputDl:simu5g_rateavg -nan
scalar SingleCell_D2D.eNB.cellularNic.mac macDelayUl:mean -nan
scalar SingleCell_D2D.eNB.cellularNic.mac macDelayDl:mean -nan
scalar SingleCell_D2D.eNB.cellularNic.mac macCellThroughputUl:simu5g_rateavg 185205.51935810864
scalar SingleCell_D2D.eNB.cellularNic.mac macCellThroughputDl:simu5g_rateavg -nan
scalar SingleCell_D2D.eNB.cellularNic.mac sentPacketToLowerLayer:count 2734
scalar SingleCell_D2D.eNB.cellularNic.mac sentPacketToLowerLayer:sum(packetBytes) 2734
scalar SingleCell_D2D.eNB.cellularNic.mac sentPacketToUpperLayer:count 0
scalar SingleCell_D2D.eNB.cellularNic.mac sentPacketToUpperLayer:sum(packetBytes) 0
scalar SingleCell_D2D.eNB.cellularNic.mac receivedPacketFromLowerLayer:count 3339
scalar SingleCell_D2D.eNB.cellularNic.mac receivedPacketFromLowerLayer:sum(packetBytes) 3948
scalar SingleCell_D2D.eNB.cellularNic.mac receivedPacketFromUpperLayer:count 0
scalar SingleCell_D2D.eNB.cellularNic.mac receivedPacketFromUpperLayer:sum(packetBytes) 0
scalar SingleCell_D2D.eNB.cellularNic.mac macBufferOverFlowD2D:mean -nan
scalar SingleCell_D2D.eNB.cellularNic.mac macBufferOverFlowUl:mean -nan
scalar SingleCell_D2D.eNB.cellularNic.mac macBufferOverFlowDl:mean -nan
scalar SingleCell_D2D.eNB.cellularNic.channelModel[0] measuredSinrUl:mean -nan
scalar SingleCell_D2D.eNB.cellularNic.channelModel[0] measuredSinrDl:mean -nan
scalar SingleCell_D2D.eNB.cellularNic.channelModel[0] rcvdSinrD2D:mean -nan
scalar SingleCell_D2D.eNB.cellularNic.channelModel[0] rcvdSinrUl:mean -nan
scalar SingleCell_D2D.eNB.cellularNic.channelModel[0] rcvdSinrDl:mean -nan
scalar SingleCell_D2D.eNB.cellularNic packetDropInterfaceDown:count 0
scalar SingleCell_D2D.eNB.cellularNic packetDropInterfaceDown:sum(packetBytes) 0
scalar SingleCell_D2D.eNB.cellularNic packetDropNoCarrier:count 0
scalar SingleCell_D2D.eNB.cellularNic packetDropNoCarrier:sum(packetBytes) 0
scalar SingleCell_D2D.eNB.pppIf.queue queueLength:last 0
scalar SingleCell_D2D.eNB.pppIf.queue queueLength:max 0
scalar SingleCell_D2D.eNB.pppIf.queue queueLength:timeavg 0
scalar SingleCell_D2D.eNB.pppIf.queue queueBitLength:last 0
scalar SingleCell_D2D.eNB.pppIf.queue queueBitLength:max 0
scalar SingleCell_D2D.eNB.pppIf.queue queueBitLength:timeavg 0
scalar SingleCell_D2D.eNB.pppIf.queue outgoingPackets:count 0
scalar SingleCell_D2D.eNB.pppIf.queue outgoingPacketLengths:sum 0
scalar SingleCell_D2D.eNB.pppIf.queue incomingPackets:count 0
scalar SingleCell_D2D.eNB.pppIf.queue incomingPacketLengths:sum 0
scalar SingleCell_D2D.eNB.pppIf.queue droppedPacketsQueueOverflow:count 0
scalar SingleCell_D2D.eNB.pppIf.queue droppedPacketLengthsQueueOverflow:sum 0
scalar SingleCell_D2D.eNB.pppIf.ppp transmissionState:timeavg 0
scalar SingleCell_D2D.eNB.pppIf.ppp rxPkOk:count 0
scalar SingleCell_D2D.eNB.pppIf.ppp rxPkOk:sum(packetBytes) 0
scalar SingleCell_D2D.eNB.pppIf.ppp txPk:count 0
scalar SingleCell_D2D.eNB.pppIf.ppp txPk:sum(packetBytes) 0
scalar SingleCell_D2D.eNB.pppIf.ppp rcvdPkFromHl:count 0
scalar SingleCell_D2D.eNB.pppIf.ppp rcvdPkFromHl:sum(packetBytes) 0
scalar SingleCell_D2D.eNB.pppIf.ppp passedUpPk:count 0
scalar SingleCell_D2D.eNB.pppIf.ppp passedUpPk:sum(packetBytes) 0
scalar SingleCell_D2D.eNB.pppIf.ppp packetDropIncorrectlyReceived:count 0
scalar SingleCell_D2D.eNB.pppIf.ppp packetDropIncorrectlyReceived:sum(packetBytes) 0
scalar SingleCell_D2D.eNB.pppIf.ppp packetDropInterfaceDown:count 0
scalar SingleCell_D2D.eNB.pppIf.ppp packetDropInterfaceDown:sum(packetBytes) 0
scalar SingleCell_D2D.eNB.pppIf packetDropInterfaceDown:count 0
scalar SingleCell_D2D.eNB.pppIf packetDropInterfaceDown:sum(packetBytes) 0
scalar SingleCell_D2D.eNB.pppIf packetDropNoCarrier:count 0
scalar SingleCell_D2D.eNB.pppIf packetDropNoCarrier:sum(packetBytes) 0
scalar SingleCell_D2D.eNB.pppMEHostIf.queue queueLength:last 0
scalar SingleCell_D2D.eNB.pppMEHostIf.queue queueLength:max 0
scalar SingleCell_D2D.eNB.pppMEHostIf.queue queueLength:timeavg 0
scalar SingleCell_D2D.eNB.pppMEHostIf.queue queueBitLength:last 0
scalar SingleCell_D2D.eNB.pppMEHostIf.queue queueBitLength:max 0
scalar SingleCell_D2D.eNB.pppMEHostIf.queue queueBitLength:timeavg 0
scalar SingleCell_D2D.eNB.pppMEHostIf.queue outgoingPackets:count 0
scalar SingleCell_D2D.eNB.pppMEHostIf.queue outgoingPacketLengths:sum 0
scalar SingleCell_D2D.eNB.pppMEHostIf.queue incomingPackets:count 0
scalar SingleCell_D2D.eNB.pppMEHostIf.queue incomingPacketLengths:sum 0
scalar SingleCell_D2D.eNB.pppMEHostIf.queue droppedPacketsQueueOverflow:count 0
scalar SingleCell_D2D.eNB.pppMEHostIf.queue droppedPacketLengthsQueueOverflow:sum 0
scalar SingleCell_D2D.eNB.pppMEHostIf.ppp transmissionState:timeavg 0
scalar SingleCell_D2D.eNB.pppMEHostIf.ppp rxPkOk:count 0
scalar SingleCell_D2D.eNB.pppMEHostIf.ppp rxPkOk:sum(packetBytes) 0
scalar SingleCell_D2D.eNB.pppMEHostIf.ppp txPk:count 0
scalar SingleCell_D2D.eNB.pppMEHostIf.ppp txPk:sum(packetBytes) 0
scalar SingleCell_D2D.eNB.pppMEHostIf.ppp rcvdPkFromHl:count 0
scalar SingleCell_D2D.eNB.pppMEHostIf.ppp rcvdPkFromHl:sum(packetBytes) 0
scalar SingleCell_D2D.eNB.pppMEHostIf.ppp passedUpPk:count 0
scalar SingleCell_D2D.eNB.pppMEHostIf.ppp passedUpPk:sum(packetBytes) 0
scalar SingleCell_D2D.eNB.pppMEHostIf.ppp packetDropIncorrectlyReceived:count 0
scalar SingleCell_D2D.eNB.pppMEHostIf.ppp packetDropIncorrectlyReceived:sum(packetBytes) 0
scalar SingleCell_D2D.eNB.pppMEHostIf.ppp packetDropInterfaceDown:count 0
scalar SingleCell_D2D.eNB.pppMEHostIf.ppp packetDropInterfaceDown:sum(packetBytes) 0
scalar SingleCell_D2D.eNB.pppMEHostIf packetDropInterfaceDown:count 0
scalar SingleCell_D2D.eNB.pppMEHostIf packetDropInterfaceDown:sum(packetBytes) 0
scalar SingleCell_D2D.eNB.pppMEHostIf packetDropNoCarrier:count 0
scalar SingleCell_D2D.eNB.pppMEHostIf packetDropNoCarrier:sum(packetBytes) 0
scalar SingleCell_D2D.eNB.ipv4.ip packetDropAddressResolutionFailed:count 0
scalar SingleCell_D2D.eNB.ipv4.ip packetDropAddressResolutionFailed:sum(packetBytes) 0
scalar SingleCell_D2D.eNB.ipv4.ip packetDropHopLimitReached:count 0
scalar SingleCell_D2D.eNB.ipv4.ip packetDropHopLimitReached:sum(packetBytes) 0
scalar SingleCell_D2D.eNB.ipv4.ip packetDropForwardingDisabled:count 0
scalar SingleCell_D2D.eNB.ipv4.ip packetDropForwardingDisabled:sum(packetBytes) 0
scalar SingleCell_D2D.eNB.ipv4.ip packetDropNoInterfaceFound:count 0
scalar SingleCell_D2D.eNB.ipv4.ip packetDropNoInterfaceFound:sum(packetBytes) 0
scalar SingleCell_D2D.eNB.ipv4.ip packetDropNoRouteFound:count 0
scalar SingleCell_D2D.eNB.ipv4.ip packetDropNoRouteFound:sum(packetBytes) 0
scalar SingleCell_D2D.eNB.ipv4.ip packetDropUndefined:count 0
scalar SingleCell_D2D.eNB.ipv4.ip packetDropUndefined:sum(packetBytes) 0
scalar SingleCell_D2D.eNB.ipv4.arp arpResolutionFailed:count 0
scalar SingleCell_D2D.eNB.ipv4.arp arpResolutionCompleted:count 0
scalar SingleCell_D2D.eNB.ipv4.arp arpResolutionInitiated:count 0
scalar SingleCell_D2D.eNB.ipv4.arp arpReplySent:count 0
scalar SingleCell_D2D.eNB.ipv4.arp arpReplySent:sum(packetBytes) 0
scalar SingleCell_D2D.eNB.ipv4.arp arpRequestSent:count 0
scalar SingleCell_D2D.eNB.ipv4.arp arpRequestSent:sum(packetBytes) 0
scalar SingleCell_D2D.eNB.udp packetReceived:count 0
scalar SingleCell_D2D.eNB.udp packetReceived:sum(packetBytes) 0
scalar SingleCell_D2D.eNB.udp packetSent:count 0
scalar SingleCell_D2D.eNB.udp packetSent:sum(packetBytes) 0
scalar SingleCell_D2D.eNB.udp passedUpPk:count 0
scalar SingleCell_D2D.eNB.udp droppedPkWrongPort:count 0
scalar SingleCell_D2D.eNB.udp droppedPkBadChecksum:count 0
scalar SingleCell_D2D.ueD2DTx[0].lo[0].lo rcvdPkFromHl:count 0
scalar SingleCell_D2D.ueD2DTx[0].lo[0].lo rcvdPkFromHl:sum(packetBytes) 0
scalar SingleCell_D2D.ueD2DTx[0].lo[0].lo passedUpPk:count 0
scalar SingleCell_D2D.ueD2DTx[0].lo[0].lo passedUpPk:sum(packetBytes) 0
scalar SingleCell_D2D.ueD2DTx[0].lo[0] packetDropInterfaceDown:count 0
scalar SingleCell_D2D.ueD2DTx[0].lo[0] packetDropInterfaceDown:sum(packetBytes) 0
scalar SingleCell_D2D.ueD2DTx[0].lo[0] packetDropNoCarrier:count 0
scalar SingleCell_D2D.ueD2DTx[0].lo[0] packetDropNoCarrier:sum(packetBytes) 0
scalar SingleCell_D2D.ueD2DTx[0].cellularNic.pdcp sentPacketToLowerLayer:count 2075
scalar SingleCell_D2D.ueD2DTx[0].cellularNic.pdcp sentPacketToLowerLayer:sum(packetBytes) 1196207
scalar SingleCell_D2D.ueD2DTx[0].cellularNic.pdcp sentPacketToUpperLayer:count 2060
scalar SingleCell_D2D.ueD2DTx[0].cellularNic.pdcp sentPacketToUpperLayer:sum(packetBytes) 82404
scalar SingleCell_D2D.ueD2DTx[0].cellularNic.pdcp receivedPacketFromLowerLayer:count 2060
scalar SingleCell_D2D.ueD2DTx[0].cellularNic.pdcp receivedPacketFromLowerLayer:sum(packetBytes) 84464
scalar SingleCell_D2D.ueD2DTx[0].cellularNic.pdcp receivedPacketFromUpperLayer:count 2075
scalar SingleCell_D2D.ueD2DTx[0].cellularNic.pdcp receivedPacketFromUpperLayer:sum(packetBytes) 1194132
scalar SingleCell_D2D.ueD2DTx[0].cellularNic.rlc.tm rlcPacketLossUl:mean -nan
scalar SingleCell_D2D.ueD2DTx[0].cellularNic.rlc.tm rlcPacketLossUl:sum 0
scalar SingleCell_D2D.ueD2DTx[0].cellularNic.rlc.tm rlcPacketLossDl:mean -nan
scalar SingleCell_D2D.ueD2DTx[0].cellularNic.rlc.tm rlcPacketLossDl:sum 0
scalar SingleCell_D2D.ueD2DTx[0].cellularNic.rlc.tm sentPacketToLowerLayer:count 0
scalar SingleCell_D2D.ueD2DTx[0].cellularNic.rlc.tm sentPacketToLowerLayer:sum(packetBytes) 0
scalar SingleCell_D2D.ueD2DTx[0].cellularNic.rlc.tm sentPacketToUpperLayer:count 0
scalar SingleCell_D2D.ueD2DTx[0].cellularNic.rlc.tm sentPacketToUpperLayer:sum(packetBytes) 0
scalar SingleCell_D2D.ueD2DTx[0].cellularNic.rlc.tm receivedPacketFromLowerLayer:count 0
scalar SingleCell_D2D.ueD2DTx[0].cellularNic.rlc.tm receivedPacketFromLowerLayer:sum(packetBytes) 0
scalar SingleCell_D2D.ueD2DTx[0].cellularNic.rlc.tm receivedPacketFromUpperLayer:count 0
scalar SingleCell_D2D.ueD2DTx[0].cellularNic.rlc.tm receivedPacketFromUpperLayer:sum(packetBytes) 0
scalar SingleCell_D2D.ueD2DTx[0].cellularNic.rlc.um rlcCellThroughputD2D:simu5g_rateavg -nan
scalar SingleCell_D2D.ueD2DTx[0].cellularNic.rlc.um rlcPduThroughputD2D:simu5g_rateavg 0
scalar SingleCell_D2D.ueD2DTx[0].cellularNic.rlc.um rlcPduDelayD2D:mean 0.0040000000000000027
scalar SingleCell_D2D.ueD2DTx[0].cellularNic.rlc.um rlcThroughputD2D:simu5g_rateavg 12113.190807567466
scalar SingleCell_D2D.ueD2DTx[0].cellularNic.rlc.um rlcDelayD2D:mean 0.014503398058252386
scalar SingleCell_D2D.ueD2DTx[0].cellularNic.rlc.um rlcCellThroughputUl:simu5g_rateavg -nan
scalar SingleCell_D2D.ueD2DTx[0].cellularNic.rlc.um rlcCellThroughputDl:simu5g_rateavg -nan
scalar SingleCell_D2D.ueD2DTx[0].cellularNic.rlc.um rlcPduThroughputUl:simu5g_rateavg -nan
scalar SingleCell_D2D.ueD2DTx[0].cellularNic.rlc.um rlcPduThroughputDl:simu5g_rateavg -nan
scalar SingleCell_D2D.ueD2DTx[0].cellularNic.rlc.um rlcPduDelayUl:mean -nan
scalar SingleCell_D2D.ueD2DTx[0].cellularNic.rlc.um rlcPduDelayDl:mean -nan
scalar SingleCell_D2D.ueD2DTx[0].cellularNic.rlc.um rlcThroughputUl:simu5g_rateavg -nan
scalar SingleCell_D2D.ueD2DTx[0].cellularNic.rlc.um rlcThroughputDl:simu5g_rateavg -nan
scalar SingleCell_D2D.ueD2DTx[0].cellularNic.rlc.um rlcDelayUl:mean -nan
scalar SingleCell_D2D.ueD2DTx[0].cellularNic.rlc.um rlcDelayDl:mean -nan
scalar SingleCell_D2D.ueD2DTx[0].cellularNic.rlc.um sentPacketToLowerLayer:count 301
scalar SingleCell_D2D.ueD2DTx[0].cellularNic.rlc.um sentPacketToLowerLayer:sum(packetBytes) 1196809
scalar SingleCell_D2D.ueD2DTx[0].cellularNic.rlc.um sentPacketToUpperLayer:count 2060
scalar SingleCell_D2D.ueD2DTx[0].cellularNic.rlc.um sentPacketToUpperLayer:sum(packetBytes) 84464
scalar SingleCell_D2D.ueD2DTx[0].cellularNic.rlc.um receivedPacketFromLowerLayer:count 151
scalar SingleCell_D2D.ueD2DTx[0].cellularNic.rlc.um receivedPacketFromLowerLayer:sum(packetBytes) 84766
scalar SingleCell_D2D.ueD2DTx[0].cellularNic.rlc.um receivedPacketFromUpperLayer:count 2075
scalar SingleCell_D2D.ueD2DTx[0].cellularNic.rlc.um receivedPacketFromUpperLayer:sum(packetBytes) 1196207
scalar SingleCell_D2D.ueD2DTx[0].cellularNic.rlc.am rlcPacketLossTotal:mean -nan
scalar SingleCell_D2D.ueD2DTx[0].cellularNic.rlc.am rlcCellThroughputUl:simu5g_rateavg -nan
scalar SingleCell_D2D.ueD2DTx[0].cellularNic.rlc.am rlcCellThroughputDl:simu5g_rateavg -nan
scalar SingleCell_D2D.ueD2DTx[0].cellularNic.rlc.am rlcPduThroughputUl:simu5g_rateavg -nan
scalar SingleCell_D2D.ueD2DTx[0].cellularNic.rlc.am rlcPduThroughputDl:simu5g_rateavg -nan
scalar SingleCell_D2D.ueD2DTx[0].cellularNic.rlc.am rlcPduDelayUl:mean -nan
scalar SingleCell_D2D.ueD2DTx[0].cellularNic.rlc.am rlcPduDelayDl:mean -nan
scalar SingleCell_D2D.ueD2DTx[0].cellularNic.rlc.am rlcThroughputUl:simu5g_rateavg -nan
scalar SingleCell_D2D.ueD2DTx[0].cellularNic.rlc.am rlcThroughputDl:simu5g_rateavg -nan
scalar SingleCell_D2D.ueD2DTx[0].cellularNic.rlc.am rlcDelayUl:mean -nan
scalar SingleCell_D2D.ueD2DTx[0].cellularNic.rlc.am rlcDelayDl:mean -nan
scalar SingleCell_D2D.ueD2DTx[0].cellularNic.rlc.am rlcPduPacketLossUl:mean -nan
scalar SingleCell_D2D.ueD2DTx[0].cellularNic.rlc.am rlcPduPacketLossDl:mean -nan
scalar SingleCell_D2D.ueD2DTx[0].cellularNic.rlc.am rlcPacketLossUl:mean -nan
scalar SingleCell_D2D.ueD2DTx[0].cellularNic.rlc.am rlcPacketLossDl:mean -nan
scalar SingleCell_D2D.ueD2DTx[0].cellularNic.rlc.am rlcCellPacketLossUl:mean -nan
scalar SingleCell_D2D.ueD2DTx[0].cellularNic.rlc.am rlcCellPacketLossDl:mean -nan
scalar SingleCell_D2D.ueD2DTx[0].cellularNic.mac harqErrorRate_4th_D2D:mean -nan
scalar SingleCell_D2D.ueD2DTx[0].cellularNic.mac harqErrorRate_3rd_D2D:mean -nan
scalar SingleCell_D2D.ueD2DTx[0].cellularNic.mac harqErrorRate_2nd_D2D:mean -nan
scalar SingleCell_D2D.ueD2DTx[0].cellularNic.mac harqErrorRate_1st_D2D:mean 0
scalar SingleCell_D2D.ueD2DTx[0].cellularNic.mac harqErrorRateD2D:mean 0
scalar SingleCell_D2D.ueD2DTx[0].cellularNic.mac macPacketLossD2D:mean 0
scalar SingleCell_D2D.ueD2DTx[0].cellularNic.mac macDelayD2D:mean 0.0040000000000000027
scalar SingleCell_D2D.ueD2DTx[0].cellularNic.mac macThroughputD2D:simu5g_rateavg 12437.74932061363
scalar SingleCell_D2D.ueD2DTx[0].cellularNic.mac harqTxAttemptsUl:mean 1
scalar SingleCell_D2D.ueD2DTx[0].cellularNic.mac harqTxAttemptsDl:mean -nan
scalar SingleCell_D2D.ueD2DTx[0].cellularNic.mac harqErrorRate_4th_Ul:mean -nan
scalar SingleCell_D2D.ueD2DTx[0].cellularNic.mac harqErrorRate_4th_Dl:mean -nan
scalar SingleCell_D2D.ueD2DTx[0].cellularNic.mac harqErrorRate_3rd_Ul:mean -nan
scalar SingleCell_D2D.ueD2DTx[0].cellularNic.mac harqErrorRate_3rd_Dl:mean -nan
scalar SingleCell_D2D.ueD2DTx[0].cellularNic.mac harqErrorRate_2nd_Ul:mean -nan
scalar SingleCell_D2D.ueD2DTx[0].cellularNic.mac harqErrorRate_2nd_Dl:mean -nan
scalar SingleCell_D2D.ueD2DTx[0].cellularNic.mac harqErrorRate_1st_Ul:mean 0
scalar SingleCell_D2D.ueD2DTx[0].cellularNic.mac harqErrorRate_1st_Dl:mean -nan
scalar SingleCell_D2D.ueD2DTx[0].cellularNic.mac harqErrorRateUl:mean 0
scalar SingleCell_D2D.ueD2DTx[0].cellularNic.mac harqErrorRateDl:mean -nan
scalar SingleCell_D2D.ueD2DTx[0].cellularNic.mac macCellPacketLossUl:mean -nan
scalar SingleCell_D2D.ueD2DTx[0].cellularNic.mac macCellPacketLossDl:mean -nan
scalar SingleCell_D2D.ueD2DTx[0].cellularNic.mac macPacketLossUl:mean 0
scalar SingleCell_D2D.ueD2DTx[0].cellularNic.mac macPacketLossDl:mean -nan
scalar SingleCell_D2D.ueD2DTx[0].cellularNic.mac macThroughputUl:simu5g_rateavg 97.642438190540332
scalar SingleCell_D2D.ueD2DTx[0].cellularNic.mac macThroughputDl:simu5g_rateavg -nan
scalar SingleCell_D2D.ueD2DTx[0].cellularNic.mac macDelayUl:mean 0.0040000000000000027
scalar SingleCell_D2D.ueD2DTx[0].cellularNic.mac macDelayDl:mean -nan
scalar SingleCell_D2D.ueD2DTx[0].cellularNic.mac macCellThroughputUl:simu5g_rateavg -nan
scalar SingleCell_D2D.ueD2DTx[0].cellularNic.mac macCellThroughputDl:simu5g_rateavg -nan
scalar SingleCell_D2D.ueD2DTx[0].cellularNic.mac rcvdD2DModeSwitchNotification:count 0
scalar SingleCell_D2D.ueD2DTx[0].cellularNic.mac sentPacketToLowerLayer:count 1215
scalar SingleCell_D2D.ueD2DTx[0].cellularNic.mac sentPacketToLowerLayer:sum(packetBytes) 1198631
scalar SingleCell_D2D.ueD2DTx[0].cellularNic.mac sentPacketToUpperLayer:count 452
scalar SingleCell_D2D.ueD2DTx[0].cellularNic.mac sentPacketToUpperLayer:sum(packetBytes) 85067
scalar SingleCell_D2D.ueD2DTx[0].cellularNic.mac receivedPacketFromLowerLayer:count 1972
scalar SingleCell_D2D.ueD2DTx[0].cellularNic.mac receivedPacketFromLowerLayer:sum(packetBytes) 86889
scalar SingleCell_D2D.ueD2DTx[0].cellularNic.mac receivedPacketFromUpperLayer:count 2376
scalar SingleCell_D2D.ueD2DTx[0].cellularNic.mac receivedPacketFromUpperLayer:sum(packetBytes) 2393016
scalar SingleCell_D2D.ueD2DTx[0].cellularNic.mac macBufferOverFlowD2D:mean -nan
scalar SingleCell_D2D.ueD2DTx[0].cellularNic.mac macBufferOverFlowUl:mean -nan
scalar SingleCell_D2D.ueD2DTx[0].cellularNic.mac macBufferOverFlowDl:mean -nan
scalar SingleCell_D2D.ueD2DTx[0].cellularNic.phy distance:mean -nan
scalar SingleCell_D2D.ueD2DTx[0].cellularNic.phy averageCqiD2D:mean 15
scalar SingleCell_D2D.ueD2DTx[0].cellularNic.phy averageCqiUl:mean 15
scalar SingleCell_D2D.ueD2DTx[0].cellularNic.phy averageCqiUl:count 306
scalar SingleCell_D2D.ueD2DTx[0].cellularNic.phy averageCqiDl:mean -nan
scalar SingleCell_D2D.ueD2DTx[0].cellularNic.phy averageCqiDl:count 0
scalar SingleCell_D2D.ueD2DTx[0].cellularNic.channelModel[0] measuredSinrUl:mean 63.846486541398491
scalar SingleCell_D2D.ueD2DTx[0].cellularNic.channelModel[0] measuredSinrDl:mean 79.806002113562116
scalar SingleCell_D2D.ueD2DTx[0].cellularNic.channelModel[0] rcvdSinrD2D:mean -nan
scalar SingleCell_D2D.ueD2DTx[0].cellularNic.channelModel[0] rcvdSinrUl:mean 57.859149406139764
scalar SingleCell_D2D.ueD2DTx[0].cellularNic.channelModel[0] rcvdSinrDl:mean -nan
scalar SingleCell_D2D.ueD2DTx[0].cellularNic packetDropInterfaceDown:count 0
scalar SingleCell_D2D.ueD2DTx[0].cellularNic packetDropInterfaceDown:sum(packetBytes) 0
scalar SingleCell_D2D.ueD2DTx[0].cellularNic packetDropNoCarrier:count 0
scalar SingleCell_D2D.ueD2DTx[0].cellularNic packetDropNoCarrier:sum(packetBytes) 0
scalar SingleCell_D2D.ueD2DTx[0].encap pauseSent:count 0
scalar SingleCell_D2D.ueD2DTx[0].encap pauseSent:sum 0
scalar SingleCell_D2D.ueD2DTx[0].encap decapPk:count 0
scalar SingleCell_D2D.ueD2DTx[0].encap decapPk:sum(packetBytes) 0
scalar SingleCell_D2D.ueD2DTx[0].encap encapPk:count 0
scalar SingleCell_D2D.ueD2DTx[0].encap encapPk:sum(packetBytes) 0
scalar SingleCell_D2D.ueD2DTx[0].ipv4.ip packetDropAddressResolutionFailed:count 0
scalar SingleCell_D2D.ueD2DTx[0].ipv4.ip packetDropAddressResolutionFailed:sum(packetBytes) 0
scalar SingleCell_D2D.ueD2DTx[0].ipv4.ip packetDropHopLimitReached:count 0
scalar SingleCell_D2D.ueD2DTx[0].ipv4.ip packetDropHopLimitReached:sum(packetBytes) 0
scalar SingleCell_D2D.ueD2DTx[0].ipv4.ip packetDropForwardingDisabled:count 0
scalar SingleCell_D2D.ueD2DTx[0].ipv4.ip packetDropForwardingDisabled:sum(packetBytes) 0
scalar SingleCell_D2D.ueD2DTx[0].ipv4.ip packetDropNoInterfaceFound:count 0
scalar SingleCell_D2D.ueD2DTx[0].ipv4.ip packetDropNoInterfaceFound:sum(packetBytes) 0
scalar SingleCell_D2D.ueD2DTx[0].ipv4.ip packetDropNoRouteFound:count 0
scalar SingleCell_D2D.ueD2DTx[0].ipv4.ip packetDropNoRouteFound:sum(packetBytes) 0
scalar SingleCell_D2D.ueD2DTx[0].ipv4.ip packetDropUndefined:count 0
scalar SingleCell_D2D.ueD2DTx[0].ipv4.ip packetDropUndefined:sum(packetBytes) 0
scalar SingleCell_D2D.ueD2DTx[0].ipv4.arp arpResolutionFailed:count 0
scalar SingleCell_D2D.ueD2DTx[0].ipv4.arp arpResolutionCompleted:count 0
scalar SingleCell_D2D.ueD2DTx[0].ipv4.arp arpResolutionInitiated:count 0
scalar SingleCell_D2D.ueD2DTx[0].ipv4.arp arpReplySent:count 0
scalar SingleCell_D2D.ueD2DTx[0].ipv4.arp arpReplySent:sum(packetBytes) 0
scalar SingleCell_D2D.ueD2DTx[0].ipv4.arp arpRequestSent:count 0
scalar SingleCell_D2D.ueD2DTx[0].ipv4.arp arpRequestSent:sum(packetBytes) 0
scalar SingleCell_D2D.ueD2DTx[0].udp packetReceived:count 0
scalar SingleCell_D2D.ueD2DTx[0].udp packetReceived:sum(packetBytes) 0
scalar SingleCell_D2D.ueD2DTx[0].udp packetSent:count 0
scalar SingleCell_D2D.ueD2DTx[0].udp packetSent:sum(packetBytes) 0
scalar SingleCell_D2D.ueD2DTx[0].udp passedUpPk:count 0
scalar SingleCell_D2D.ueD2DTx[0].udp droppedPkWrongPort:count 0
scalar SingleCell_D2D.ueD2DTx[0].udp droppedPkBadChecksum:count 0
scalar SingleCell_D2D.ueD2DTx[0].app[0] bytesRcvd 0
scalar SingleCell_D2D.ueD2DTx[0].app[0] bytesSent 1073741824
scalar SingleCell_D2D.ueD2DTx[0].app[0] packetReceived:count 0
scalar SingleCell_D2D.ueD2DTx[0].app[0] packetReceived:sum(packetBytes) 0
scalar SingleCell_D2D.ueD2DTx[0].app[0] packetSent:count 1
scalar SingleCell_D2D.ueD2DTx[0].app[0] packetSent:sum(packetBytes) 1073741824
scalar SingleCell_D2D.ueD2DRx[0].lo[0].lo rcvdPkFromHl:count 0
scalar SingleCell_D2D.ueD2DRx[0].lo[0].lo rcvdPkFromHl:sum(packetBytes) 0
scalar SingleCell_D2D.ueD2DRx[0].lo[0].lo passedUpPk:count 0
scalar SingleCell_D2D.ueD2DRx[0].lo[0].lo passedUpPk:sum(packetBytes) 0
scalar SingleCell_D2D.ueD2DRx[0].lo[0] packetDropInterfaceDown:count 0
scalar SingleCell_D2D.ueD2DRx[0].lo[0] packetDropInterfaceDown:sum(packetBytes) 0
scalar SingleCell_D2D.ueD2DRx[0].lo[0] packetDropNoCarrier:count 0
scalar SingleCell_D2D.ueD2DRx[0].lo[0] packetDropNoCarrier:sum(packetBytes) 0
scalar SingleCell_D2D.ueD2DRx[0].cellularNic.pdcp sentPacketToLowerLayer:count 2074
scalar SingleCell_D2D.ueD2DRx[0].cellularNic.pdcp sentPacketToLowerLayer:sum(packetBytes) 85038
scalar SingleCell_D2D.ueD2DRx[0].cellularNic.pdcp sentPacketToUpperLayer:count 2075
scalar SingleCell_D2D.ueD2DRx[0].cellularNic.pdcp sentPacketToUpperLayer:sum(packetBytes) 1194132
scalar SingleCell_D2D.ueD2DRx[0].cellularNic.pdcp receivedPacketFromLowerLayer:count 2075
scalar SingleCell_D2D.ueD2DRx[0].cellularNic.pdcp receivedPacketFromLowerLayer:sum(packetBytes) 1196207
scalar SingleCell_D2D.ueD2DRx[0].cellularNic.pdcp receivedPacketFromUpperLayer:count 2074
scalar SingleCell_D2D.ueD2DRx[0].cellularNic.pdcp receivedPacketFromUpperLayer:sum(packetBytes) 82964
scalar SingleCell_D2D.ueD2DRx[0].cellularNic.rlc.tm rlcPacketLossUl:mean -nan
scalar SingleCell_D2D.ueD2DRx[0].cellularNic.rlc.tm rlcPacketLossUl:sum 0
scalar SingleCell_D2D.ueD2DRx[0].cellularNic.rlc.tm rlcPacketLossDl:mean -nan
scalar SingleCell_D2D.ueD2DRx[0].cellularNic.rlc.tm rlcPacketLossDl:sum 0
scalar SingleCell_D2D.ueD2DRx[0].cellularNic.rlc.tm sentPacketToLowerLayer:count 0
scalar SingleCell_D2D.ueD2DRx[0].cellularNic.rlc.tm sentPacketToLowerLayer:sum(packetBytes) 0
scalar SingleCell_D2D.ueD2DRx[0].cellularNic.rlc.tm sentPacketToUpperLayer:count 0
scalar SingleCell_D2D.ueD2DRx[0].cellularNic.rlc.tm sentPacketToUpperLayer:sum(packetBytes) 0
scalar SingleCell_D2D.ueD2DRx[0].cellularNic.rlc.tm receivedPacketFromLowerLayer:count 0
scalar SingleCell_D2D.ueD2DRx[0].cellularNic.rlc.tm receivedPacketFromLowerLayer:sum(packetBytes) 0
scalar SingleCell_D2D.ueD2DRx[0].cellularNic.rlc.tm receivedPacketFromUpperLayer:count 0
scalar SingleCell_D2D.ueD2DRx[0].cellularNic.rlc.tm receivedPacketFromUpperLayer:sum(packetBytes) 0
scalar SingleCell_D2D.ueD2DRx[0].cellularNic.rlc.um rlcCellThroughputD2D:simu5g_rateavg -nan
scalar SingleCell_D2D.ueD2DRx[0].cellularNic.rlc.um rlcPduThroughputD2D:simu5g_rateavg 0
scalar SingleCell_D2D.ueD2DRx[0].cellularNic.rlc.um rlcPduDelayD2D:mean 0.0040000000000000027
scalar SingleCell_D2D.ueD2DRx[0].cellularNic.rlc.um rlcThroughputD2D:simu5g_rateavg 171979.69632167125
scalar SingleCell_D2D.ueD2DRx[0].cellularNic.rlc.um rlcDelayD2D:mean 0.015495570334886985
scalar SingleCell_D2D.ueD2DRx[0].cellularNic.rlc.um rlcCellThroughputUl:simu5g_rateavg -nan
scalar SingleCell_D2D.ueD2DRx[0].cellularNic.rlc.um rlcCellThroughputDl:simu5g_rateavg -nan
scalar SingleCell_D2D.ueD2DRx[0].cellularNic.rlc.um rlcPduThroughputUl:simu5g_rateavg -nan
scalar SingleCell_D2D.ueD2DRx[0].cellularNic.rlc.um rlcPduThroughputDl:simu5g_rateavg -nan
scalar SingleCell_D2D.ueD2DRx[0].cellularNic.rlc.um rlcPduDelayUl:mean -nan
scalar SingleCell_D2D.ueD2DRx[0].cellularNic.rlc.um rlcPduDelayDl:mean -nan
scalar SingleCell_D2D.ueD2DRx[0].cellularNic.rlc.um rlcThroughputUl:simu5g_rateavg -nan
scalar SingleCell_D2D.ueD2DRx[0].cellularNic.rlc.um rlcThroughputDl:simu5g_rateavg -nan
scalar SingleCell_D2D.ueD2DRx[0].cellularNic.rlc.um rlcDelayUl:mean -nan
scalar SingleCell_D2D.ueD2DRx[0].cellularNic.rlc.um rlcDelayDl:mean -nan
scalar SingleCell_D2D.ueD2DRx[0].cellularNic.rlc.um sentPacketToLowerLayer:count 151
scalar SingleCell_D2D.ueD2DRx[0].cellularNic.rlc.um sentPacketToLowerLayer:sum(packetBytes) 84766
scalar SingleCell_D2D.ueD2DRx[0].cellularNic.rlc.um sentPacketToUpperLayer:count 2075
scalar SingleCell_D2D.ueD2DRx[0].cellularNic.rlc.um sentPacketToUpperLayer:sum(packetBytes) 1196207
scalar SingleCell_D2D.ueD2DRx[0].cellularNic.rlc.um receivedPacketFromLowerLayer:count 301
scalar SingleCell_D2D.ueD2DRx[0].cellularNic.rlc.um receivedPacketFromLowerLayer:sum(packetBytes) 1196809
scalar SingleCell_D2D.ueD2DRx[0].cellularNic.rlc.um receivedPacketFromUpperLayer:count 2074
scalar SingleCell_D2D.ueD2DRx[0].cellularNic.rlc.um receivedPacketFromUpperLayer:sum(packetBytes) 85038
scalar SingleCell_D2D.ueD2DRx[0].cellularNic.rlc.am rlcPacketLossTotal:mean -nan
scalar SingleCell_D2D.ueD2DRx[0].cellularNic.rlc.am rlcCellThroughputUl:simu5g_rateavg -nan
scalar SingleCell_D2D.ueD2DRx[0].cellularNic.rlc.am rlcCellThroughputDl:simu5g_rateavg -nan
scalar SingleCell_D2D.ueD2DRx[0].cellularNic.rlc.am rlcPduThroughputUl:simu5g_rateavg -nan
scalar SingleCell_D2D.ueD2DRx[0].cellularNic.rlc.am rlcPduThroughputDl:simu5g_rateavg -nan
scalar SingleCell_D2D.ueD2DRx[0].cellularNic.rlc.am rlcPduDelayUl:mean -nan
scalar SingleCell_D2D.ueD2DRx[0].cellularNic.rlc.am rlcPduDelayDl:mean -nan
scalar SingleCell_D2D.ueD2DRx[0].cellularNic.rlc.am rlcThroughputUl:simu5g_rateavg -nan
scalar SingleCell_D2D.ueD2DRx[0].cellularNic.rlc.am rlcThroughputDl:simu5g_rateavg -nan
scalar SingleCell_D2D.ueD2DRx[0].cellularNic.rlc.am rlcDelayUl:mean -nan
scalar SingleCell_D2D.ueD2DRx[0].cellularNic.rlc.am rlcDelayDl:mean -nan
scalar SingleCell_D2D.ueD2DRx[0].cellularNic.rlc.am rlcPduPacketLossUl:mean -nan
scalar SingleCell_D2D.ueD2DRx[0].cellularNic.rlc.am rlcPduPacketLossDl:mean -nan
scalar SingleCell_D2D.ueD2DRx[0].cellularNic.rlc.am rlcPacketLossUl:mean -nan
scalar SingleCell_D2D.ueD2DRx[0].cellularNic.rlc.am rlcPacketLossDl:mean -nan
scalar SingleCell_D2D.ueD2DRx[0].cellularNic.rlc.am rlcCellPacketLossUl:mean -nan
scalar SingleCell_D2D.ueD2DRx[0].cellularNic.rlc.am rlcCellPacketLossDl:mean -nan
scalar SingleCell_D2D.ueD2DRx[0].cellularNic.mac harqErrorRate_4th_D2D:mean -nan
scalar SingleCell_D2D.ueD2DRx[0].cellularNic.mac harqErrorRate_3rd_D2D:mean -nan
scalar SingleCell_D2D.ueD2DRx[0].cellularNic.mac harqErrorRate_2nd_D2D:mean -nan
scalar SingleCell_D2D.ueD2DRx[0].cellularNic.mac harqErrorRate_1st_D2D:mean 0
scalar SingleCell_D2D.ueD2DRx[0].cellularNic.mac harqErrorRateD2D:mean 0
scalar SingleCell_D2D.ueD2DRx[0].cellularNic.mac macPacketLossD2D:mean 0
scalar SingleCell_D2D.ueD2DRx[0].cellularNic.mac macDelayD2D:mean 0.0040000000000000027
scalar SingleCell_D2D.ueD2DRx[0].cellularNic.mac macThroughputD2D:simu5g_rateavg 173834.86156128667
scalar SingleCell_D2D.ueD2DRx[0].cellularNic.mac harqTxAttemptsUl:mean 1
scalar SingleCell_D2D.ueD2DRx[0].cellularNic.mac harqTxAttemptsDl:mean -nan
scalar SingleCell_D2D.ueD2DRx[0].cellularNic.mac harqErrorRate_4th_Ul:mean -nan
scalar SingleCell_D2D.ueD2DRx[0].cellularNic.mac harqErrorRate_4th_Dl:mean -nan
scalar SingleCell_D2D.ueD2DRx[0].cellularNic.mac harqErrorRate_3rd_Ul:mean -nan
scalar SingleCell_D2D.ueD2DRx[0].cellularNic.mac harqErrorRate_3rd_Dl:mean -nan
scalar SingleCell_D2D.ueD2DRx[0].cellularNic.mac harqErrorRate_2nd_Ul:mean -nan
scalar SingleCell_D2D.ueD2DRx[0].cellularNic.mac harqErrorRate_2nd_Dl:mean -nan
scalar SingleCell_D2D.ueD2DRx[0].cellularNic.mac harqErrorRate_1st_Ul:mean 0
scalar SingleCell_D2D.ueD2DRx[0].cellularNic.mac harqErrorRate_1st_Dl:mean -nan
scalar SingleCell_D2D.ueD2DRx[0].cellularNic.mac harqErrorRateUl:mean 0
scalar SingleCell_D2D.ueD2DRx[0].cellularNic.mac harqErrorRateDl:mean -nan
scalar SingleCell_D2D.ueD2DRx[0].cellularNic.mac macCellPacketLossUl:mean -nan
scalar SingleCell_D2D.ueD2DRx[0].cellularNic.mac macCellPacketLossDl:mean -nan
scalar SingleCell_D2D.ueD2DRx[0].cellularNic.mac macPacketLossUl:mean 0
scalar SingleCell_D2D.ueD2DRx[0].cellularNic.mac macPacketLossDl:mean -nan
scalar SingleCell_D2D.ueD2DRx[0].cellularNic.mac macThroughputUl:simu5g_rateavg 93.853594228755767
scalar SingleCell_D2D.ueD2DRx[0].cellularNic.mac macThroughputDl:simu5g_rateavg -nan
scalar SingleCell_D2D.ueD2DRx[0].cellularNic.mac macDelayUl:mean 0.0040000000000000027
scalar SingleCell_D2D.ueD2DRx[0].cellularNic.mac macDelayDl:mean -nan
scalar SingleCell_D2D.ueD2DRx[0].cellularNic.mac macCellThroughputUl:simu5g_rateavg -nan
scalar SingleCell_D2D.ueD2DRx[0].cellularNic.mac macCellThroughputDl:simu5g_rateavg -nan
scalar SingleCell_D2D.ueD2DRx[0].cellularNic.mac rcvdD2DModeSwitchNotification:count 0
scalar SingleCell_D2D.ueD2DRx[0].cellularNic.mac sentPacketToLowerLayer:count 1360
scalar SingleCell_D2D.ueD2DRx[0].cellularNic.mac sentPacketToLowerLayer:sum(packetBytes) 86580
scalar SingleCell_D2D.ueD2DRx[0].cellularNic.mac sentPacketToUpperLayer:count 452
scalar SingleCell_D2D.ueD2DRx[0].cellularNic.mac sentPacketToUpperLayer:sum(packetBytes) 1196960
scalar SingleCell_D2D.ueD2DRx[0].cellularNic.mac receivedPacketFromLowerLayer:count 1664
scalar SingleCell_D2D.ueD2DRx[0].cellularNic.mac receivedPacketFromLowerLayer:sum(packetBytes) 1198774
scalar SingleCell_D2D.ueD2DRx[0].cellularNic.mac receivedPacketFromUpperLayer:count 2225
scalar SingleCell_D2D.ueD2DRx[0].cellularNic.mac receivedPacketFromUpperLayer:sum(packetBytes) 169804
scalar SingleCell_D2D.ueD2DRx[0].cellularNic.mac macBufferOverFlowD2D:mean -nan
scalar SingleCell_D2D.ueD2DRx[0].cellularNic.mac macBufferOverFlowUl:mean -nan
scalar SingleCell_D2D.ueD2DRx[0].cellularNic.mac macBufferOverFlowDl:mean -nan
scalar SingleCell_D2D.ueD2DRx[0].cellularNic.phy distance:mean -nan
scalar SingleCell_D2D.ueD2DRx[0].cellularNic.phy averageCqiD2D:mean 15
scalar SingleCell_D2D.ueD2DRx[0].cellularNic.phy averageCqiUl:mean 15
scalar SingleCell_D2D.ueD2DRx[0].cellularNic.phy averageCqiUl:count 303
scalar SingleCell_D2D.ueD2DRx[0].cellularNic.phy averageCqiDl:mean -nan
scalar SingleCell_D2D.ueD2DRx[0].cellularNic.phy averageCqiDl:count 0
scalar SingleCell_D2D.ueD2DRx[0].cellularNic.channelModel[0] measuredSinrUl:mean 54.51987498791744
scalar SingleCell_D2D.ueD2DRx[0].cellularNic.channelModel[0] measuredSinrDl:mean 76.418932673572627
scalar SingleCell_D2D.ueD2DRx[0].cellularNic.channelModel[0] rcvdSinrD2D:mean -nan
scalar SingleCell_D2D.ueD2DRx[0].cellularNic.channelModel[0] rcvdSinrUl:mean 58.615772420016086
scalar SingleCell_D2D.ueD2DRx[0].cellularNic.channelModel[0] rcvdSinrDl:mean -nan
scalar SingleCell_D2D.ueD2DRx[0].cellularNic packetDropInterfaceDown:count 0
scalar SingleCell_D2D.ueD2DRx[0].cellularNic packetDropInterfaceDown:sum(packetBytes) 0
scalar SingleCell_D2D.ueD2DRx[0].cellularNic packetDropNoCarrier:count 0
scalar SingleCell_D2D.ueD2DRx[0].cellularNic packetDropNoCarrier:sum(packetBytes) 0
scalar SingleCell_D2D.ueD2DRx[0].encap pauseSent:count 0
scalar SingleCell_D2D.ueD2DRx[0].encap pauseSent:sum 0
scalar SingleCell_D2D.ueD2DRx[0].encap decapPk:count 0
scalar SingleCell_D2D.ueD2DRx[0].encap decapPk:sum(packetBytes) 0
scalar SingleCell_D2D.ueD2DRx[0].encap encapPk:count 0
scalar SingleCell_D2D.ueD2DRx[0].encap encapPk:sum(packetBytes) 0
scalar SingleCell_D2D.ueD2DRx[0].ipv4.ip packetDropAddressResolutionFailed:count 0
scalar SingleCell_D2D.ueD2DRx[0].ipv4.ip packetDropAddressResolutionFailed:sum(packetBytes) 0
scalar SingleCell_D2D.ueD2DRx[0].ipv4.ip packetDropHopLimitReached:count 0
scalar SingleCell_D2D.ueD2DRx[0].ipv4.ip packetDropHopLimitReached:sum(packetBytes) 0
scalar SingleCell_D2D.ueD2DRx[0].ipv4.ip packetDropForwardingDisabled:count 0
scalar SingleCell_D2D.ueD2DRx[0].ipv4.ip packetDropForwardingDisabled:sum(packetBytes) 0
scalar SingleCell_D2D.ueD2DRx[0].ipv4.ip packetDropNoInterfaceFound:count 0
scalar SingleCell_D2D.ueD2DRx[0].ipv4.ip packetDropNoInterfaceFound:sum(packetBytes) 0
scalar SingleCell_D2D.ueD2DRx[0].ipv4.ip packetDropNoRouteFound:count 0
scalar SingleCell_D2D.ueD2DRx[0].ipv4.ip packetDropNoRouteFound:sum(packetBytes) 0
scalar SingleCell_D2D.ueD2DRx[0].ipv4.ip packetDropUndefined:count 0
scalar SingleCell_D2D.ueD2DRx[0].ipv4.ip packetDropUndefined:sum(packetBytes) 0
scalar SingleCell_D2D.ueD2DRx[0].ipv4.arp arpResolutionFailed:count 0
scalar SingleCell_D2D.ueD2DRx[0].ipv4.arp arpResolutionCompleted:count 0
scalar SingleCell_D2D.ueD2DRx[0].ipv4.arp arpResolutionInitiated:count 0
scalar SingleCell_D2D.ueD2DRx[0].ipv4.arp arpReplySent:count 0
scalar SingleCell_D2D.ueD2DRx[0].ipv4.arp arpReplySent:sum(packetBytes) 0
scalar SingleCell_D2D.ueD2DRx[0].ipv4.arp arpRequestSent:count 0
scalar SingleCell_D2D.ueD2DRx[0].ipv4.arp arpRequestSent:sum(packetBytes) 0
scalar SingleCell_D2D.ueD2DRx[0].udp packetReceived:count 0
scalar SingleCell_D2D.ueD2DRx[0].udp packetReceived:sum(packetBytes) 0
scalar SingleCell_D2D.ueD2DRx[0].udp packetSent:count 0
scalar SingleCell_D2D.ueD2DRx[0].udp packetSent:sum(packetBytes) 0
scalar SingleCell_D2D.ueD2DRx[0].udp passedUpPk:count 0
scalar SingleCell_D2D.ueD2DRx[0].udp droppedPkWrongPort:count 0
scalar SingleCell_D2D.ueD2DRx[0].udp droppedPkBadChecksum:count 0
scalar SingleCell_D2D.ueD2DRx[0].app[0].thread_17 packetReceived:count 2073
scalar SingleCell_D2D.ueD2DRx[0].app[0].thread_17 packetReceived:sum(packetBytes) 1111128
scalar SingleCell_D2D.ueD2DRx[0].app[0] bytesRcvd 1111128
scalar SingleCell_D2D.ueD2DRx[0].app[0] packetReceived:count 2073
scalar SingleCell_D2D.ueD2DRx[0].app[0] packetReceived:sum(packetBytes) 1111128
scalar SingleCell_D2D.server.ppp[0].queue queueingTime:histogram:count 0
scalar SingleCell_D2D.server.ppp[0].queue queueingTime:histogram:sumweights 0
scalar SingleCell_D2D.server.ppp[0].queue queueingTime:histogram:mean -nan
scalar SingleCell_D2D.server.ppp[0].queue queueingTime:histogram:stddev nan
scalar SingleCell_D2D.server.ppp[0].queue queueingTime:histogram:min nan
scalar SingleCell_D2D.server.ppp[0].queue queueingTime:histogram:max nan
scalar SingleCell_D2D.server.ppp[0].queue queueingTime:histogram:numbins 1
scalar SingleCell_D2D.server.ppp[0].queue queueingTime:histogram:rangemin 0
scalar SingleCell_D2D.server.ppp[0].queue queueingTime:histogram:rangemax 1
scalar SingleCell_D2D.server.ppp[0].queue queueingTime:histogram:underflows 0
scalar SingleCell_D2D.server.ppp[0].queue queueingTime:histogram:overflows 0
scalar SingleCell_D2D.server.ppp[0].queue outgoingPacketLengths:histogram:count 0
scalar SingleCell_D2D.server.ppp[0].queue outgoingPacketLengths:histogram:sumweights 0
scalar SingleCell_D2D.server.ppp[0].queue outgoingPacketLengths:histogram:mean -nan
scalar SingleCell_D2D.server.ppp[0].queue outgoingPacketLengths:histogram:stddev nan
scalar SingleCell_D2D.server.ppp[0].queue outgoingPacketLengths:histogram:min nan
scalar SingleCell_D2D.server.ppp[0].queue outgoingPacketLengths:histogram:max nan
scalar SingleCell_D2D.server.ppp[0].queue outgoingPacketLengths:histogram:numbins 1
scalar SingleCell_D2D.server.ppp[0].queue outgoingPacketLengths:histogram:rangemin 0
scalar SingleCell_D2D.server.ppp[0].queue outgoingPacketLengths:histogram:rangemax 1
scalar SingleCell_D2D.server.ppp[0].queue outgoingPacketLengths:histogram:underflows 0
scalar SingleCell_D2D.server.ppp[0].queue outgoingPacketLengths:histogram:overflows 0
scalar SingleCell_D2D.server.ppp[0].queue flowQueueingTime:histogram:count 0
scalar SingleCell_D2D.server.ppp[0].queue flowQueueingTime:histogram:sumweights 0
scalar SingleCell_D2D.server.ppp[0].queue flowQueueingTime:histogram:mean -nan
scalar SingleCell_D2D.server.ppp[0].queue flowQueueingTime:histogram:stddev nan
scalar SingleCell_D2D.server.ppp[0].queue flowQueueingTime:histogram:min nan
scalar SingleCell_D2D.server.ppp[0].queue flowQueueingTime:histogram:max nan
scalar SingleCell_D2D.server.ppp[0].queue flowQueueingTime:histogram:numbins 1
scalar SingleCell_D2D.server.ppp[0].queue flowQueueingTime:histogram:rangemin 0
scalar SingleCell_D2D.server.ppp[0].queue flowQueueingTime:histogram:rangemax 1
scalar SingleCell_D2D.server.ppp[0].queue flowQueueingTime:histogram:underflows 0
scalar SingleCell_D2D.server.ppp[0].queue flowQueueingTime:histogram:overflows 0
scalar SingleCell_D2D.server.ppp[0].queue incomingPacketLengths:histogram:count 0
scalar SingleCell_D2D.server.ppp[0].queue incomingPacketLengths:histogram:sumweights 0
scalar SingleCell_D2D.server.ppp[0].queue incomingPacketLengths:histogram:mean -nan
scalar SingleCell_D2D.server.ppp[0].queue incomingPacketLengths:histogram:stddev nan
scalar SingleCell_D2D.server.ppp[0].queue incomingPacketLengths:histogram:min nan
scalar SingleCell_D2D.server.ppp[0].queue incomingPacketLengths:histogram:max nan
scalar SingleCell_D2D.server.ppp[0].queue incomingPacketLengths:histogram:numbins 1
scalar SingleCell_D2D.server.ppp[0].queue incomingPacketLengths:histogram:rangemin 0
scalar SingleCell_D2D.server.ppp[0].queue incomingPacketLengths:histogram:rangemax 1
scalar SingleCell_D2D.server.ppp[0].queue incomingPacketLengths:histogram:underflows 0
scalar SingleCell_D2D.server.ppp[0].queue incomingPacketLengths:histogram:overflows 0
scalar SingleCell_D2D.router.ppp[0].queue queueingTime:histogram:count 0
scalar SingleCell_D2D.router.ppp[0].queue queueingTime:histogram:sumweights 0
scalar SingleCell_D2D.router.ppp[0].queue queueingTime:histogram:mean -nan
scalar SingleCell_D2D.router.ppp[0].queue queueingTime:histogram:stddev nan
scalar SingleCell_D2D.router.ppp[0].queue queueingTime:histogram:min nan
scalar SingleCell_D2D.router.ppp[0].queue queueingTime:histogram:max nan
scalar SingleCell_D2D.router.ppp[0].queue queueingTime:histogram:numbins 1
scalar SingleCell_D2D.router.ppp[0].queue queueingTime:histogram:rangemin 0
scalar SingleCell_D2D.router.ppp[0].queue queueingTime:histogram:rangemax 1
scalar SingleCell_D2D.router.ppp[0].queue queueingTime:histogram:underflows 0
scalar SingleCell_D2D.router.ppp[0].queue queueingTime:histogram:overflows 0
scalar SingleCell_D2D.router.ppp[0].queue outgoingPacketLengths:histogram:count 0
scalar SingleCell_D2D.router.ppp[0].queue outgoingPacketLengths:histogram:sumweights 0
scalar SingleCell_D2D.router.ppp[0].queue outgoingPacketLengths:histogram:mean -nan
scalar SingleCell_D2D.router.ppp[0].queue outgoingPacketLengths:histogram:stddev nan
scalar SingleCell_D2D.router.ppp[0].queue outgoingPacketLengths:histogram:min nan
scalar SingleCell_D2D.router.ppp[0].queue outgoingPacketLengths:histogram:max nan
scalar SingleCell_D2D.router.ppp[0].queue outgoingPacketLengths:histogram:numbins 1
scalar SingleCell_D2D.router.ppp[0].queue outgoingPacketLengths:histogram:rangemin 0
scalar SingleCell_D2D.router.ppp[0].queue outgoingPacketLengths:histogram:rangemax 1
scalar SingleCell_D2D.router.ppp[0].queue outgoingPacketLengths:histogram:underflows 0
scalar SingleCell_D2D.router.ppp[0].queue outgoingPacketLengths:histogram:overflows 0
scalar SingleCell_D2D.router.ppp[0].queue flowQueueingTime:histogram:count 0
scalar SingleCell_D2D.router.ppp[0].queue flowQueueingTime:histogram:sumweights 0
scalar SingleCell_D2D.router.ppp[0].queue flowQueueingTime:histogram:mean -nan
scalar SingleCell_D2D.router.ppp[0].queue flowQueueingTime:histogram:stddev nan
scalar SingleCell_D2D.router.ppp[0].queue flowQueueingTime:histogram:min nan
scalar SingleCell_D2D.router.ppp[0].queue flowQueueingTime:histogram:max nan
scalar SingleCell_D2D.router.ppp[0].queue flowQueueingTime:histogram:numbins 1
scalar SingleCell_D2D.router.ppp[0].queue flowQueueingTime:histogram:rangemin 0
scalar SingleCell_D2D.router.ppp[0].queue flowQueueingTime:histogram:rangemax 1
scalar SingleCell_D2D.router.ppp[0].queue flowQueueingTime:histogram:underflows 0
scalar SingleCell_D2D.router.ppp[0].queue flowQueueingTime:histogram:overflows 0
scalar SingleCell_D2D.router.ppp[0].queue incomingPacketLengths:histogram:count 0
scalar SingleCell_D2D.router.ppp[0].queue incomingPacketLengths:histogram:sumweights 0
scalar SingleCell_D2D.router.ppp[0].queue incomingPacketLengths:histogram:mean -nan
scalar SingleCell_D2D.router.ppp[0].queue incomingPacketLengths:histogram:stddev nan
scalar SingleCell_D2D.router.ppp[0].queue incomingPacketLengths:histogram:min nan
scalar SingleCell_D2D.router.ppp[0].queue incomingPacketLengths:histogram:max nan
scalar SingleCell_D2D.router.ppp[0].queue incomingPacketLengths:histogram:numbins 1
scalar SingleCell_D2D.router.ppp[0].queue incomingPacketLengths:histogram:rangemin 0
scalar SingleCell_D2D.router.ppp[0].queue incomingPacketLengths:histogram:rangemax 1
scalar SingleCell_D2D.router.ppp[0].queue incomingPacketLengths:histogram:underflows 0
scalar SingleCell_D2D.router.ppp[0].queue incomingPacketLengths:histogram:overflows 0
scalar SingleCell_D2D.router.ppp[1].queue queueingTime:histogram:count 0
scalar SingleCell_D2D.router.ppp[1].queue queueingTime:histogram:sumweights 0
scalar SingleCell_D2D.router.ppp[1].queue queueingTime:histogram:mean -nan
scalar SingleCell_D2D.router.ppp[1].queue queueingTime:histogram:stddev nan
scalar SingleCell_D2D.router.ppp[1].queue queueingTime:histogram:min nan
scalar SingleCell_D2D.router.ppp[1].queue queueingTime:histogram:max nan
scalar SingleCell_D2D.router.ppp[1].queue queueingTime:histogram:numbins 1
scalar SingleCell_D2D.router.ppp[1].queue queueingTime:histogram:rangemin 0
scalar SingleCell_D2D.router.ppp[1].queue queueingTime:histogram:rangemax 1
scalar SingleCell_D2D.router.ppp[1].queue queueingTime:histogram:underflows 0
scalar SingleCell_D2D.router.ppp[1].queue queueingTime:histogram:overflows 0
scalar SingleCell_D2D.router.ppp[1].queue outgoingPacketLengths:histogram:count 0
scalar SingleCell_D2D.router.ppp[1].queue outgoingPacketLengths:histogram:sumweights 0
scalar SingleCell_D2D.router.ppp[1].queue outgoingPacketLengths:histogram:mean -nan
scalar SingleCell_D2D.router.ppp[1].queue outgoingPacketLengths:histogram:stddev nan
scalar SingleCell_D2D.router.ppp[1].queue outgoingPacketLengths:histogram:min nan
scalar SingleCell_D2D.router.ppp[1].queue outgoingPacketLengths:histogram:max nan
scalar SingleCell_D2D.router.ppp[1].queue outgoingPacketLengths:histogram:numbins 1
scalar SingleCell_D2D.router.ppp[1].queue outgoingPacketLengths:histogram:rangemin 0
scalar SingleCell_D2D.router.ppp[1].queue outgoingPacketLengths:histogram:rangemax 1
scalar SingleCell_D2D.router.ppp[1].queue outgoingPacketLengths:histogram:underflows 0
scalar SingleCell_D2D.router.ppp[1].queue outgoingPacketLengths:histogram:overflows 0
scalar SingleCell_D2D.router.ppp[1].queue flowQueueingTime:histogram:count 0
scalar SingleCell_D2D.router.ppp[1].queue flowQueueingTime:histogram:sumweights 0
scalar SingleCell_D2D.router.ppp[1].queue flowQueueingTime:histogram:mean -nan
scalar SingleCell_D2D.router.ppp[1].queue flowQueueingTime:histogram:stddev nan
scalar SingleCell_D2D.router.ppp[1].queue flowQueueingTime:histogram:min nan
scalar SingleCell_D2D.router.ppp[1].queue flowQueueingTime:histogram:max nan
scalar SingleCell_D2D.router.ppp[1].queue flowQueueingTime:histogram:numbins 1
scalar SingleCell_D2D.router.ppp[1].queue flowQueueingTime:histogram:rangemin 0
scalar SingleCell_D2D.router.ppp[1].queue flowQueueingTime:histogram:rangemax 1
scalar SingleCell_D2D.router.ppp[1].queue flowQueueingTime:histogram:underflows 0
scalar SingleCell_D2D.router.ppp[1].queue flowQueueingTime:histogram:overflows 0
scalar SingleCell_D2D.router.ppp[1].queue incomingPacketLengths:histogram:count 0
scalar SingleCell_D2D.router.ppp[1].queue incomingPacketLengths:histogram:sumweights 0
scalar SingleCell_D2D.router.ppp[1].queue incomingPacketLengths:histogram:mean -nan
scalar SingleCell_D2D.router.ppp[1].queue incomingPacketLengths:histogram:stddev nan
scalar SingleCell_D2D.router.ppp[1].queue incomingPacketLengths:histogram:min nan
scalar SingleCell_D2D.router.ppp[1].queue incomingPacketLengths:histogram:max nan
scalar SingleCell_D2D.router.ppp[1].queue incomingPacketLengths:histogram:numbins 1
scalar SingleCell_D2D.router.ppp[1].queue incomingPacketLengths:histogram:rangemin 0
scalar SingleCell_D2D.router.ppp[1].queue incomingPacketLengths:histogram:rangemax 1
scalar SingleCell_D2D.router.ppp[1].queue incomingPacketLengths:histogram:underflows 0
scalar SingleCell_D2D.router.ppp[1].queue incomingPacketLengths:histogram:overflows 0
scalar SingleCell_D2D.pgw.ppp[0].queue queueingTime:histogram:count 0
scalar SingleCell_D2D.pgw.ppp[0].queue queueingTime:histogram:sumweights 0
scalar SingleCell_D2D.pgw.ppp[0].queue queueingTime:histogram:mean -nan
scalar SingleCell_D2D.pgw.ppp[0].queue queueingTime:histogram:stddev nan
scalar SingleCell_D2D.pgw.ppp[0].queue queueingTime:histogram:min nan
scalar SingleCell_D2D.pgw.ppp[0].queue queueingTime:histogram:max nan
scalar SingleCell_D2D.pgw.ppp[0].queue queueingTime:histogram:numbins 1
scalar SingleCell_D2D.pgw.ppp[0].queue queueingTime:histogram:rangemin 0
scalar SingleCell_D2D.pgw.ppp[0].queue queueingTime:histogram:rangemax 1
scalar SingleCell_D2D.pgw.ppp[0].queue queueingTime:histogram:underflows 0
scalar SingleCell_D2D.pgw.ppp[0].queue queueingTime:histogram:overflows 0
scalar SingleCell_D2D.pgw.ppp[0].queue outgoingPacketLengths:histogram:count 0
scalar SingleCell_D2D.pgw.ppp[0].queue outgoingPacketLengths:histogram:sumweights 0
scalar SingleCell_D2D.pgw.ppp[0].queue outgoingPacketLengths:histogram:mean -nan
scalar SingleCell_D2D.pgw.ppp[0].queue outgoingPacketLengths:histogram:stddev nan
scalar SingleCell_D2D.pgw.ppp[0].queue outgoingPacketLengths:histogram:min nan
scalar SingleCell_D2D.pgw.ppp[0].queue outgoingPacketLengths:histogram:max nan
scalar SingleCell_D2D.pgw.ppp[0].queue outgoingPacketLengths:histogram:numbins 1
scalar SingleCell_D2D.pgw.ppp[0].queue outgoingPacketLengths:histogram:rangemin 0
scalar SingleCell_D2D.pgw.ppp[0].queue outgoingPacketLengths:histogram:rangemax 1
scalar SingleCell_D2D.pgw.ppp[0].queue outgoingPacketLengths:histogram:underflows 0
scalar SingleCell_D2D.pgw.ppp[0].queue outgoingPacketLengths:histogram:overflows 0
scalar SingleCell_D2D.pgw.ppp[0].queue flowQueueingTime:histogram:count 0
scalar SingleCell_D2D.pgw.ppp[0].queue flowQueueingTime:histogram:sumweights 0
scalar SingleCell_D2D.pgw.ppp[0].queue flowQueueingTime:histogram:mean -nan
scalar SingleCell_D2D.pgw.ppp[0].queue flowQueueingTime:histogram:stddev nan
scalar SingleCell_D2D.pgw.ppp[0].queue flowQueueingTime:histogram:min nan
scalar SingleCell_D2D.pgw.ppp[0].queue flowQueueingTime:histogram:max nan
scalar SingleCell_D2D.pgw.ppp[0].queue flowQueueingTime:histogram:numbins 1
scalar SingleCell_D2D.pgw.ppp[0].queue flowQueueingTime:histogram:rangemin 0
scalar SingleCell_D2D.pgw.ppp[0].queue flowQueueingTime:histogram:rangemax 1
scalar SingleCell_D2D.pgw.ppp[0].queue flowQueueingTime:histogram:underflows 0
scalar SingleCell_D2D.pgw.ppp[0].queue flowQueueingTime:histogram:overflows 0
scalar SingleCell_D2D.pgw.ppp[0].queue incomingPacketLengths:histogram:count 0
scalar SingleCell_D2D.pgw.ppp[0].queue incomingPacketLengths:histogram:sumweights 0
scalar SingleCell_D2D.pgw.ppp[0].queue incomingPacketLengths:histogram:mean -nan
scalar SingleCell_D2D.pgw.ppp[0].queue incomingPacketLengths:histogram:stddev nan
scalar SingleCell_D2D.pgw.ppp[0].queue incomingPacketLengths:histogram:min nan
scalar SingleCell_D2D.pgw.ppp[0].queue incomingPacketLengths:histogram:max nan
scalar SingleCell_D2D.pgw.ppp[0].queue incomingPacketLengths:histogram:numbins 1
scalar SingleCell_D2D.pgw.ppp[0].queue incomingPacketLengths:histogram:rangemin 0
scalar SingleCell_D2D.pgw.ppp[0].queue incomingPacketLengths:histogram:rangemax 1
scalar SingleCell_D2D.pgw.ppp[0].queue incomingPacketLengths:histogram:underflows 0
scalar SingleCell_D2D.pgw.ppp[0].queue incomingPacketLengths:histogram:overflows 0
scalar SingleCell_D2D.pgw.pppIf.queue queueingTime:histogram:count 0
scalar SingleCell_D2D.pgw.pppIf.queue queueingTime:histogram:sumweights 0
scalar SingleCell_D2D.pgw.pppIf.queue queueingTime:histogram:mean -nan
scalar SingleCell_D2D.pgw.pppIf.queue queueingTime:histogram:stddev nan
scalar SingleCell_D2D.pgw.pppIf.queue queueingTime:histogram:min nan
scalar SingleCell_D2D.pgw.pppIf.queue queueingTime:histogram:max nan
scalar SingleCell_D2D.pgw.pppIf.queue queueingTime:histogram:numbins 1
scalar SingleCell_D2D.pgw.pppIf.queue queueingTime:histogram:rangemin 0
scalar SingleCell_D2D.pgw.pppIf.queue queueingTime:histogram:rangemax 1
scalar SingleCell_D2D.pgw.pppIf.queue queueingTime:histogram:underflows 0
scalar SingleCell_D2D.pgw.pppIf.queue queueingTime:histogram:overflows 0
scalar SingleCell_D2D.pgw.pppIf.queue outgoingPacketLengths:histogram:count 0
scalar SingleCell_D2D.pgw.pppIf.queue outgoingPacketLengths:histogram:sumweights 0
scalar SingleCell_D2D.pgw.pppIf.queue outgoingPacketLengths:histogram:mean -nan
scalar SingleCell_D2D.pgw.pppIf.queue outgoingPacketLengths:histogram:stddev nan
scalar SingleCell_D2D.pgw.pppIf.queue outgoingPacketLengths:histogram:min nan
scalar SingleCell_D2D.pgw.pppIf.queue outgoingPacketLengths:histogram:max nan
scalar SingleCell_D2D.pgw.pppIf.queue outgoingPacketLengths:histogram:numbins 1
scalar SingleCell_D2D.pgw.pppIf.queue outgoingPacketLengths:histogram:rangemin 0
scalar SingleCell_D2D.pgw.pppIf.queue outgoingPacketLengths:histogram:rangemax 1
scalar SingleCell_D2D.pgw.pppIf.queue outgoingPacketLengths:histogram:underflows 0
scalar SingleCell_D2D.pgw.pppIf.queue outgoingPacketLengths:histogram:overflows 0
scalar SingleCell_D2D.pgw.pppIf.queue flowQueueingTime:histogram:count 0
scalar SingleCell_D2D.pgw.pppIf.queue flowQueueingTime:histogram:sumweights 0
scalar SingleCell_D2D.pgw.pppIf.queue flowQueueingTime:histogram:mean -nan
scalar SingleCell_D2D.pgw.pppIf.queue flowQueueingTime:histogram:stddev nan
scalar SingleCell_D2D.pgw.pppIf.queue flowQueueingTime:histogram:min nan
scalar SingleCell_D2D.pgw.pppIf.queue flowQueueingTime:histogram:max nan
scalar SingleCell_D2D.pgw.pppIf.queue flowQueueingTime:histogram:numbins 1
scalar SingleCell_D2D.pgw.pppIf.queue flowQueueingTime:histogram:rangemin 0
scalar SingleCell_D2D.pgw.pppIf.queue flowQueueingTime:histogram:rangemax 1
scalar SingleCell_D2D.pgw.pppIf.queue flowQueueingTime:histogram:underflows 0
scalar SingleCell_D2D.pgw.pppIf.queue flowQueueingTime:histogram:overflows 0
scalar SingleCell_D2D.pgw.pppIf.queue incomingPacketLengths:histogram:count 0
scalar SingleCell_D2D.pgw.pppIf.queue incomingPacketLengths:histogram:sumweights 0
scalar SingleCell_D2D.pgw.pppIf.queue incomingPacketLengths:histogram:mean -nan
scalar SingleCell_D2D.pgw.pppIf.queue incomingPacketLengths:histogram:stddev nan
scalar SingleCell_D2D.pgw.pppIf.queue incomingPacketLengths:histogram:min nan
scalar SingleCell_D2D.pgw.pppIf.queue incomingPacketLengths:histogram:max nan
scalar SingleCell_D2D.pgw.pppIf.queue incomingPacketLengths:histogram:numbins 1
scalar SingleCell_D2D.pgw.pppIf.queue incomingPacketLengths:histogram:rangemin 0
scalar SingleCell_D2D.pgw.pppIf.queue incomingPacketLengths:histogram:rangemax 1
scalar SingleCell_D2D.pgw.pppIf.queue incomingPacketLengths:histogram:underflows 0
scalar SingleCell_D2D.pgw.pppIf.queue incomingPacketLengths:histogram:overflows 0
scalar SingleCell_D2D.eNB.pppIf.queue queueingTime:histogram:count 0
scalar SingleCell_D2D.eNB.pppIf.queue queueingTime:histogram:sumweights 0
scalar SingleCell_D2D.eNB.pppIf.queue queueingTime:histogram:mean -nan
scalar SingleCell_D2D.eNB.pppIf.queue queueingTime:histogram:stddev nan
scalar SingleCell_D2D.eNB.pppIf.queue queueingTime:histogram:min nan
scalar SingleCell_D2D.eNB.pppIf.queue queueingTime:histogram:max nan
scalar SingleCell_D2D.eNB.pppIf.queue queueingTime:histogram:numbins 1
scalar SingleCell_D2D.eNB.pppIf.queue queueingTime:histogram:rangemin 0
scalar SingleCell_D2D.eNB.pppIf.queue queueingTime:histogram:rangemax 1
scalar SingleCell_D2D.eNB.pppIf.queue queueingTime:histogram:underflows 0
scalar SingleCell_D2D.eNB.pppIf.queue queueingTime:histogram:overflows 0
scalar SingleCell_D2D.eNB.pppIf.queue outgoingPacketLengths:histogram:count 0
scalar SingleCell_D2D.eNB.pppIf.queue outgoingPacketLengths:histogram:sumweights 0
scalar SingleCell_D2D.eNB.pppIf.queue outgoingPacketLengths:histogram:mean -nan
scalar SingleCell_D2D.eNB.pppIf.queue outgoingPacketLengths:histogram:stddev nan
scalar SingleCell_D2D.eNB.pppIf.queue outgoingPacketLengths:histogram:min nan
scalar SingleCell_D2D.eNB.pppIf.queue outgoingPacketLengths:histogram:max nan
scalar SingleCell_D2D.eNB.pppIf.queue outgoingPacketLengths:histogram:numbins 1
scalar SingleCell_D2D.eNB.pppIf.queue outgoingPacketLengths:histogram:rangemin 0
scalar SingleCell_D2D.eNB.pppIf.queue outgoingPacketLengths:histogram:rangemax 1
scalar SingleCell_D2D.eNB.pppIf.queue outgoingPacketLengths:histogram:underflows 0
scalar SingleCell_D2D.eNB.pppIf.queue outgoingPacketLengths:histogram:overflows 0
scalar SingleCell_D2D.eNB.pppIf.queue flowQueueingTime:histogram:count 0
scalar SingleCell_D2D.eNB.pppIf.queue flowQueueingTime:histogram:sumweights 0
scalar SingleCell_D2D.eNB.pppIf.queue flowQueueingTime:histogram:mean -nan
scalar SingleCell_D2D.eNB.pppIf.queue flowQueueingTime:histogram:stddev nan
scalar SingleCell_D2D.eNB.pppIf.queue flowQueueingTime:histogram:min nan
scalar SingleCell_D2D.eNB.pppIf.queue flowQueueingTime:histogram:max nan
scalar SingleCell_D2D.eNB.pppIf.queue flowQueueingTime:histogram:numbins 1
scalar SingleCell_D2D.eNB.pppIf.queue flowQueueingTime:histogram:rangemin 0
scalar SingleCell_D2D.eNB.pppIf.queue flowQueueingTime:histogram:rangemax 1
scalar SingleCell_D2D.eNB.pppIf.queue flowQueueingTime:histogram:underflows 0
scalar SingleCell_D2D.eNB.pppIf.queue flowQueueingTime:histogram:overflows 0
scalar SingleCell_D2D.eNB.pppIf.queue incomingPacketLengths:histogram:count 0
scalar SingleCell_D2D.eNB.pppIf.queue incomingPacketLengths:histogram:sumweights 0
scalar SingleCell_D2D.eNB.pppIf.queue incomingPacketLengths:histogram:mean -nan
scalar SingleCell_D2D.eNB.pppIf.queue incomingPacketLengths:histogram:stddev nan
scalar SingleCell_D2D.eNB.pppIf.queue incomingPacketLengths:histogram:min nan
scalar SingleCell_D2D.eNB.pppIf.queue incomingPacketLengths:histogram:max nan
scalar SingleCell_D2D.eNB.pppIf.queue incomingPacketLengths:histogram:numbins 1
scalar SingleCell_D2D.eNB.pppIf.queue incomingPacketLengths:histogram:rangemin 0
scalar SingleCell_D2D.eNB.pppIf.queue incomingPacketLengths:histogram:rangemax 1
[...]
scalar SingleCell_D2D.ueD2DRx[0].tcp.conn-17 sndWnd:vector:count 2
scalar SingleCell_D2D.ueD2DRx[0].tcp.conn-17 sndWnd:vector:sum 15008
scalar SingleCell_D2D.ueD2DRx[0].tcp.conn-17 sndWnd:vector:sumweights 2
scalar SingleCell_D2D.ueD2DRx[0].tcp.conn-17 sndWnd:vector:mean 7504
scalar SingleCell_D2D.ueD2DRx[0].tcp.conn-17 sndWnd:vector:stddev 0
scalar SingleCell_D2D.ueD2DRx[0].tcp.conn-17 sndWnd:vector:min 7504
scalar SingleCell_D2D.ueD2DRx[0].tcp.conn-17 sndWnd:vector:max 7504
scalar SingleCell_D2D.ueD2DRx[0].tcp.conn-17 sndWnd:vector:starttime 0.067000000000000004
scalar SingleCell_D2D.ueD2DRx[0].tcp.conn-17 sndWnd:vector:endtime 0.097000000000000003
scalar SingleCell_D2D.ueD2DRx[0].tcp.conn-17 rcvWnd:vector:count 2074
scalar SingleCell_D2D.ueD2DRx[0].tcp.conn-17 rcvWnd:vector:sum 15563296
scalar SingleCell_D2D.ueD2DRx[0].tcp.conn-17 rcvWnd:vector:sumweights 2074
scalar SingleCell_D2D.ueD2DRx[0].tcp.conn-17 rcvWnd:vector:mean 7504
scalar SingleCell_D2D.ueD2DRx[0].tcp.conn-17 rcvWnd:vector:stddev 0
scalar SingleCell_D2D.ueD2DRx[0].tcp.conn-17 rcvWnd:vector:min 7504
scalar SingleCell_D2D.ueD2DRx[0].tcp.conn-17 rcvWnd:vector:max 7504
scalar SingleCell_D2D.ueD2DRx[0].tcp.conn-17 rcvWnd:vector:starttime 0.067000000000000004
scalar SingleCell_D2D.ueD2DRx[0].tcp.conn-17 rcvWnd:vector:endtime 4.992
scalar SingleCell_D2D.ueD2DRx[0].tcp.conn-17 rcvAdv:vector:count 2075
scalar SingleCell_D2D.ueD2DRx[0].tcp.conn-17 rcvAdv:vector:sum 1195225436
scalar SingleCell_D2D.ueD2DRx[0].tcp.conn-17 rcvAdv:vector:sumweights 2075
scalar SingleCell_D2D.ueD2DRx[0].tcp.conn-17 rcvAdv:vector:mean 576012.25831325306
scalar SingleCell_D2D.ueD2DRx[0].tcp.conn-17 rcvAdv:vector:stddev 321141.39322494052
scalar SingleCell_D2D.ueD2DRx[0].tcp.conn-17 rcvAdv:vector:min 20716
scalar SingleCell_D2D.ueD2DRx[0].tcp.conn-17 rcvAdv:vector:max 1131844
scalar SingleCell_D2D.ueD2DRx[0].tcp.conn-17 rcvAdv:vector:starttime 0.067000000000000004
scalar SingleCell_D2D.ueD2DRx[0].tcp.conn-17 rcvAdv:vector:endtime 4.992
scalar SingleCell_D2D.ueD2DRx[0].tcp.conn-17 sndNxt:vector:count 0
scalar SingleCell_D2D.ueD2DRx[0].tcp.conn-17 sndNxt:vector:sum 0
scalar SingleCell_D2D.ueD2DRx[0].tcp.conn-17 sndNxt:vector:sumweights 0
scalar SingleCell_D2D.ueD2DRx[0].tcp.conn-17 sndNxt:vector:mean -nan
scalar SingleCell_D2D.ueD2DRx[0].tcp.conn-17 sndNxt:vector:stddev nan
scalar SingleCell_D2D.ueD2DRx[0].tcp.conn-17 sndNxt:vector:min inf
scalar SingleCell_D2D.ueD2DRx[0].tcp.conn-17 sndNxt:vector:max -inf
scalar SingleCell_D2D.ueD2DRx[0].tcp.conn-17 sndNxt:vector:starttime nan
scalar SingleCell_D2D.ueD2DRx[0].tcp.conn-17 sndNxt:vector:endtime nan
scalar SingleCell_D2D.ueD2DRx[0].tcp.conn-17 sndAck:vector:count 2074
scalar SingleCell_D2D.ueD2DRx[0].tcp.conn-17 sndAck:vector:sum 1179641424
scalar SingleCell_D2D.ueD2DRx[0].tcp.conn-17 sndAck:vector:sumweights 2074
scalar SingleCell_D2D.ueD2DRx[0].tcp.conn-17 sndAck:vector:mean 568776
scalar SingleCell_D2D.ueD2DRx[0].tcp.conn-17 sndAck:vector:stddev 320987.11043695611
scalar SingleCell_D2D.ueD2DRx[0].tcp.conn-17 sndAck:vector:min 13212
scalar SingleCell_D2D.ueD2DRx[0].tcp.conn-17 sndAck:vector:max 1124340
scalar SingleCell_D2D.ueD2DRx[0].tcp.conn-17 sndAck:vector:starttime 0.067000000000000004
scalar SingleCell_D2D.ueD2DRx[0].tcp.conn-17 sndAck:vector:endtime 4.992
scalar SingleCell_D2D.ueD2DRx[0].tcp.conn-17 rcvSeq:vector:count 2074
scalar SingleCell_D2D.ueD2DRx[0].tcp.conn-17 rcvSeq:vector:sum 1178530296
scalar SingleCell_D2D.ueD2DRx[0].tcp.conn-17 rcvSeq:vector:sumweights 2074
scalar SingleCell_D2D.ueD2DRx[0].tcp.conn-17 rcvSeq:vector:mean 568240.25843780139
scalar SingleCell_D2D.ueD2DRx[0].tcp.conn-17 rcvSeq:vector:stddev 320986.66313289304
scalar SingleCell_D2D.ueD2DRx[0].tcp.conn-17 rcvSeq:vector:min 13212
scalar SingleCell_D2D.ueD2DRx[0].tcp.conn-17 rcvSeq:vector:max 1123804
scalar SingleCell_D2D.ueD2DRx[0].tcp.conn-17 rcvSeq:vector:starttime 0.097000000000000003
scalar SingleCell_D2D.ueD2DRx[0].tcp.conn-17 rcvSeq:vector:endtime 4.992
scalar SingleCell_D2D.ueD2DRx[0].tcp.conn-17 rcvAck:vector:count 2074
scalar SingleCell_D2D.ueD2DRx[0].tcp.conn-17 rcvAck:vector:sum 34741574
scalar SingleCell_D2D.ueD2DRx[0].tcp.conn-17 rcvAck:vector:sumweights 2074
scalar SingleCell_D2D.ueD2DRx[0].tcp.conn-17 rcvAck:vector:mean 16751
scalar SingleCell_D2D.ueD2DRx[0].tcp.conn-17 rcvAck:vector:stddev 0
scalar SingleCell_D2D.ueD2DRx[0].tcp.conn-17 rcvAck:vector:min 16751
scalar SingleCell_D2D.ueD2DRx[0].tcp.conn-17 rcvAck:vector:max 16751
scalar SingleCell_D2D.ueD2DRx[0].tcp.conn-17 rcvAck:vector:starttime 0.097000000000000003
scalar SingleCell_D2D.ueD2DRx[0].tcp.conn-17 rcvAck:vector:endtime 4.992
scalar SingleCell_D2D.ueD2DRx[0].tcp.conn-17 unacked:vector:count 1
scalar SingleCell_D2D.ueD2DRx[0].tcp.conn-17 unacked:vector:sum 0
scalar SingleCell_D2D.ueD2DRx[0].tcp.conn-17 unacked:vector:sumweights 1
scalar SingleCell_D2D.ueD2DRx[0].tcp.conn-17 unacked:vector:mean 0
scalar SingleCell_D2D.ueD2DRx[0].tcp.conn-17 unacked:vector:stddev nan
scalar SingleCell_D2D.ueD2DRx[0].tcp.conn-17 unacked:vector:min 0
scalar SingleCell_D2D.ueD2DRx[0].tcp.conn-17 unacked:vector:max 0
scalar SingleCell_D2D.ueD2DRx[0].tcp.conn-17 unacked:vector:starttime 0.097000000000000003
scalar SingleCell_D2D.ueD2DRx[0].tcp.conn-17 unacked:vector:endtime 0.097000000000000003
scalar SingleCell_D2D.ueD2DRx[0].tcp.conn-17 dupAcks:vector:count 2073
scalar SingleCell_D2D.ueD2DRx[0].tcp.conn-17 dupAcks:vector:sum 0
scalar SingleCell_D2D.ueD2DRx[0].tcp.conn-17 dupAcks:vector:sumweights 2073
scalar SingleCell_D2D.ueD2DRx[0].tcp.conn-17 dupAcks:vector:mean 0
scalar SingleCell_D2D.ueD2DRx[0].tcp.conn-17 dupAcks:vector:stddev 0
scalar SingleCell_D2D.ueD2DRx[0].tcp.conn-17 dupAcks:vector:min 0
scalar SingleCell_D2D.ueD2DRx[0].tcp.conn-17 dupAcks:vector:max 0
scalar SingleCell_D2D.ueD2DRx[0].tcp.conn-17 dupAcks:vector:starttime 0.49099999999999999
scalar SingleCell_D2D.ueD2DRx[0].tcp.conn-17 dupAcks:vector:endtime 4.992
scalar SingleCell_D2D.ueD2DRx[0].tcp.conn-17 pipe:vector:count 0
scalar SingleCell_D2D.ueD2DRx[0].tcp.conn-17 pipe:vector:sum 0
scalar SingleCell_D2D.ueD2DRx[0].tcp.conn-17 pipe:vector:sumweights 0
scalar SingleCell_D2D.ueD2DRx[0].tcp.conn-17 pipe:vector:mean -nan
scalar SingleCell_D2D.ueD2DRx[0].tcp.conn-17 pipe:vector:stddev nan
scalar SingleCell_D2D.ueD2DRx[0].tcp.conn-17 pipe:vector:min inf
scalar SingleCell_D2D.ueD2DRx[0].tcp.conn-17 pipe:vector:max -inf
scalar SingleCell_D2D.ueD2DRx[0].tcp.conn-17 pipe:vector:starttime nan
scalar SingleCell_D2D.ueD2DRx[0].tcp.conn-17 pipe:vector:endtime nan
scalar SingleCell_D2D.ueD2DRx[0].tcp.conn-17 sndSacks:vector:count 0
scalar SingleCell_D2D.ueD2DRx[0].tcp.conn-17 sndSacks:vector:sum 0
scalar SingleCell_D2D.ueD2DRx[0].tcp.conn-17 sndSacks:vector:sumweights 0
scalar SingleCell_D2D.ueD2DRx[0].tcp.conn-17 sndSacks:vector:mean -nan
scalar SingleCell_D2D.ueD2DRx[0].tcp.conn-17 sndSacks:vector:stddev nan
scalar SingleCell_D2D.ueD2DRx[0].tcp.conn-17 sndSacks:vector:min inf
scalar SingleCell_D2D.ueD2DRx[0].tcp.conn-17 sndSacks:vector:max -inf
scalar SingleCell_D2D.ueD2DRx[0].tcp.conn-17 sndSacks:vector:starttime nan
scalar SingleCell_D2D.ueD2DRx[0].tcp.conn-17 sndSacks:vector:endtime nan
scalar SingleCell_D2D.ueD2DRx[0].tcp.conn-17 rcvSacks:vector:count 0
scalar SingleCell_D2D.ueD2DRx[0].tcp.conn-17 rcvSacks:vector:sum 0
scalar SingleCell_D2D.ueD2DRx[0].tcp.conn-17 rcvSacks:vector:sumweights 0
scalar SingleCell_D2D.ueD2DRx[0].tcp.conn-17 rcvSacks:vector:mean -nan
scalar SingleCell_D2D.ueD2DRx[0].tcp.conn-17 rcvSacks:vector:stddev nan
scalar SingleCell_D2D.ueD2DRx[0].tcp.conn-17 rcvSacks:vector:min inf
scalar SingleCell_D2D.ueD2DRx[0].tcp.conn-17 rcvSacks:vector:max -inf
scalar SingleCell_D2D.ueD2DRx[0].tcp.conn-17 rcvSacks:vector:starttime nan
scalar SingleCell_D2D.ueD2DRx[0].tcp.conn-17 rcvSacks:vector:endtime nan
scalar SingleCell_D2D.ueD2DRx[0].tcp.conn-17 rcvOooSeg:vector:count 0
scalar SingleCell_D2D.ueD2DRx[0].tcp.conn-17 rcvOooSeg:vector:sum 0
scalar SingleCell_D2D.ueD2DRx[0].tcp.conn-17 rcvOooSeg:vector:sumweights 0
scalar SingleCell_D2D.ueD2DRx[0].tcp.conn-17 rcvOooSeg:vector:mean -nan
scalar SingleCell_D2D.ueD2DRx[0].tcp.conn-17 rcvOooSeg:vector:stddev nan
scalar SingleCell_D2D.ueD2DRx[0].tcp.conn-17 rcvOooSeg:vector:min inf
scalar SingleCell_D2D.ueD2DRx[0].tcp.conn-17 rcvOooSeg:vector:max -inf
scalar SingleCell_D2D.ueD2DRx[0].tcp.conn-17 rcvOooSeg:vector:starttime nan
scalar SingleCell_D2D.ueD2DRx[0].tcp.conn-17 rcvOooSeg:vector:endtime nan
scalar SingleCell_D2D.ueD2DRx[0].tcp.conn-17 rcvNASeg:vector:count 0
scalar SingleCell_D2D.ueD2DRx[0].tcp.conn-17 rcvNASeg:vector:sum 0
scalar SingleCell_D2D.ueD2DRx[0].tcp.conn-17 rcvNASeg:vector:sumweights 0
scalar SingleCell_D2D.ueD2DRx[0].tcp.conn-17 rcvNASeg:vector:mean -nan
scalar SingleCell_D2D.ueD2DRx[0].tcp.conn-17 rcvNASeg:vector:stddev nan
scalar SingleCell_D2D.ueD2DRx[0].tcp.conn-17 rcvNASeg:vector:min inf
scalar SingleCell_D2D.ueD2DRx[0].tcp.conn-17 rcvNASeg:vector:max -inf
scalar SingleCell_D2D.ueD2DRx[0].tcp.conn-17 rcvNASeg:vector:starttime nan
scalar SingleCell_D2D.ueD2DRx[0].tcp.conn-17 rcvNASeg:vector:endtime nan
scalar SingleCell_D2D.ueD2DRx[0].tcp.conn-17 sackedBytes:vector:count 0
scalar SingleCell_D2D.ueD2DRx[0].tcp.conn-17 sackedBytes:vector:sum 0
scalar SingleCell_D2D.ueD2DRx[0].tcp.conn-17 sackedBytes:vector:sumweights 0
scalar SingleCell_D2D.ueD2DRx[0].tcp.conn-17 sackedBytes:vector:mean -nan
scalar SingleCell_D2D.ueD2DRx[0].tcp.conn-17 sackedBytes:vector:stddev nan
scalar SingleCell_D2D.ueD2DRx[0].tcp.conn-17 sackedBytes:vector:min inf
scalar SingleCell_D2D.ueD2DRx[0].tcp.conn-17 sackedBytes:vector:max -inf
scalar SingleCell_D2D.ueD2DRx[0].tcp.conn-17 sackedBytes:vector:starttime nan
scalar SingleCell_D2D.ueD2DRx[0].tcp.conn-17 sackedBytes:vector:endtime nan
scalar SingleCell_D2D.ueD2DRx[0].tcp.conn-17 tcpRcvQueueBytes:vector:count 4147
scalar SingleCell_D2D.ueD2DRx[0].tcp.conn-17 tcpRcvQueueBytes:vector:sum 0
scalar SingleCell_D2D.ueD2DRx[0].tcp.conn-17 tcpRcvQueueBytes:vector:sumweights 4147
scalar SingleCell_D2D.ueD2DRx[0].tcp.conn-17 tcpRcvQueueBytes:vector:mean 0
scalar SingleCell_D2D.ueD2DRx[0].tcp.conn-17 tcpRcvQueueBytes:vector:stddev 0
scalar SingleCell_D2D.ueD2DRx[0].tcp.conn-17 tcpRcvQueueBytes:vector:min 0
scalar SingleCell_D2D.ueD2DRx[0].tcp.conn-17 tcpRcvQueueBytes:vector:max 0
scalar SingleCell_D2D.ueD2DRx[0].tcp.conn-17 tcpRcvQueueBytes:vector:starttime 0.067000000000000004
scalar SingleCell_D2D.ueD2DRx[0].tcp.conn-17 tcpRcvQueueBytes:vector:endtime 4.992
scalar SingleCell_D2D.ueD2DRx[0].tcp.conn-17 tcpRcvQueueDrops:vector:count 0
scalar SingleCell_D2D.ueD2DRx[0].tcp.conn-17 tcpRcvQueueDrops:vector:sum 0
scalar SingleCell_D2D.ueD2DRx[0].tcp.conn-17 tcpRcvQueueDrops:vector:sumweights 0
scalar SingleCell_D2D.ueD2DRx[0].tcp.conn-17 tcpRcvQueueDrops:vector:mean -nan
scalar SingleCell_D2D.ueD2DRx[0].tcp.conn-17 tcpRcvQueueDrops:vector:stddev nan
scalar SingleCell_D2D.ueD2DRx[0].tcp.conn-17 tcpRcvQueueDrops:vector:min inf
scalar SingleCell_D2D.ueD2DRx[0].tcp.conn-17 tcpRcvQueueDrops:vector:max -inf
scalar SingleCell_D2D.ueD2DRx[0].tcp.conn-17 tcpRcvQueueDrops:vector:starttime nan
scalar SingleCell_D2D.ueD2DRx[0].tcp.conn-17 tcpRcvQueueDrops:vector:endtime nan
scalar SingleCell_D2D.ueD2DRx[0].tcp.conn-17 tcpRcvPayloadBytes:vector:count 2074
scalar SingleCell_D2D.ueD2DRx[0].tcp.conn-17 tcpRcvPayloadBytes:vector:sum 1111128
scalar SingleCell_D2D.ueD2DRx[0].tcp.conn-17 tcpRcvPayloadBytes:vector:sumweights 2074
scalar SingleCell_D2D.ueD2DRx[0].tcp.conn-17 tcpRcvPayloadBytes:vector:mean 535.74156219864994
scalar SingleCell_D2D.ueD2DRx[0].tcp.conn-17 tcpRcvPayloadBytes:vector:stddev 11.769565052439493
scalar SingleCell_D2D.ueD2DRx[0].tcp.conn-17 tcpRcvPayloadBytes:vector:min 0
scalar SingleCell_D2D.ueD2DRx[0].tcp.conn-17 tcpRcvPayloadBytes:vector:max 536
scalar SingleCell_D2D.ueD2DRx[0].tcp.conn-17 tcpRcvPayloadBytes:vector:starttime 0.097000000000000003
scalar SingleCell_D2D.ueD2DRx[0].tcp.conn-17 tcpRcvPayloadBytes:vector:endtime 4.992
scalar SingleCell_D2D.ueD2DRx[0].tcp.conn-17 cwnd:vector:count 0
scalar SingleCell_D2D.ueD2DRx[0].tcp.conn-17 cwnd:vector:sum 0
scalar SingleCell_D2D.ueD2DRx[0].tcp.conn-17 cwnd:vector:sumweights 0
scalar SingleCell_D2D.ueD2DRx[0].tcp.conn-17 cwnd:vector:mean -nan
scalar SingleCell_D2D.ueD2DRx[0].tcp.conn-17 cwnd:vector:stddev nan
scalar SingleCell_D2D.ueD2DRx[0].tcp.conn-17 cwnd:vector:min inf
scalar SingleCell_D2D.ueD2DRx[0].tcp.conn-17 cwnd:vector:max -inf
scalar SingleCell_D2D.ueD2DRx[0].tcp.conn-17 cwnd:vector:starttime nan
scalar SingleCell_D2D.ueD2DRx[0].tcp.conn-17 cwnd:vector:endtime nan
scalar SingleCell_D2D.ueD2DRx[0].tcp.conn-17 ssthresh:vector:count 0
scalar SingleCell_D2D.ueD2DRx[0].tcp.conn-17 ssthresh:vector:sum 0
scalar SingleCell_D2D.ueD2DRx[0].tcp.conn-17 ssthresh:vector:sumweights 0
scalar SingleCell_D2D.ueD2DRx[0].tcp.conn-17 ssthresh:vector:mean -nan
scalar SingleCell_D2D.ueD2DRx[0].tcp.conn-17 ssthresh:vector:stddev nan
scalar SingleCell_D2D.ueD2DRx[0].tcp.conn-17 ssthresh:vector:min inf
scalar SingleCell_D2D.ueD2DRx[0].tcp.conn-17 ssthresh:vector:max -inf
scalar SingleCell_D2D.ueD2DRx[0].tcp.conn-17 ssthresh:vector:starttime nan
scalar SingleCell_D2D.ueD2DRx[0].tcp.conn-17 ssthresh:vector:endtime nan
scalar SingleCell_D2D.ueD2DRx[0].tcp.conn-17 rtt:vector:count 0
scalar SingleCell_D2D.ueD2DRx[0].tcp.conn-17 rtt:vector:sum 0
scalar SingleCell_D2D.ueD2DRx[0].tcp.conn-17 rtt:vector:sumweights 0
scalar SingleCell_D2D.ueD2DRx[0].tcp.conn-17 rtt:vector:mean -nan
scalar SingleCell_D2D.ueD2DRx[0].tcp.conn-17 rtt:vector:stddev nan
scalar SingleCell_D2D.ueD2DRx[0].tcp.conn-17 rtt:vector:min inf
scalar SingleCell_D2D.ueD2DRx[0].tcp.conn-17 rtt:vector:max -inf
scalar SingleCell_D2D.ueD2DRx[0].tcp.conn-17 rtt:vector:starttime nan
scalar SingleCell_D2D.ueD2DRx[0].tcp.conn-17 rtt:vector:endtime nan
scalar SingleCell_D2D.ueD2DRx[0].tcp.conn-17 srtt:vector:count 0
scalar SingleCell_D2D.ueD2DRx[0].tcp.conn-17 srtt:vector:sum 0
scalar SingleCell_D2D.ueD2DRx[0].tcp.conn-17 srtt:vector:sumweights 0
scalar SingleCell_D2D.ueD2DRx[0].tcp.conn-17 srtt:vector:mean -nan
scalar SingleCell_D2D.ueD2DRx[0].tcp.conn-17 srtt:vector:stddev nan
scalar SingleCell_D2D.ueD2DRx[0].tcp.conn-17 srtt:vector:min inf
scalar SingleCell_D2D.ueD2DRx[0].tcp.conn-17 srtt:vector:max -inf
scalar SingleCell_D2D.ueD2DRx[0].tcp.conn-17 srtt:vector:starttime nan
scalar SingleCell_D2D.ueD2DRx[0].tcp.conn-17 srtt:vector:endtime nan
scalar SingleCell_D2D.ueD2DRx[0].tcp.conn-17 rttvar:vector:count 0
scalar SingleCell_D2D.ueD2DRx[0].tcp.conn-17 rttvar:vector:sum 0
scalar SingleCell_D2D.ueD2DRx[0].tcp.conn-17 rttvar:vector:sumweights 0
scalar SingleCell_D2D.ueD2DRx[0].tcp.conn-17 rttvar:vector:mean -nan
scalar SingleCell_D2D.ueD2DRx[0].tcp.conn-17 rttvar:vector:stddev nan
scalar SingleCell_D2D.ueD2DRx[0].tcp.conn-17 rttvar:vector:min inf
scalar SingleCell_D2D.ueD2DRx[0].tcp.conn-17 rttvar:vector:max -inf
scalar SingleCell_D2D.ueD2DRx[0].tcp.conn-17 rttvar:vector:starttime nan
scalar SingleCell_D2D.ueD2DRx[0].tcp.conn-17 rttvar:vector:endtime nan
scalar SingleCell_D2D.ueD2DRx[0].tcp.conn-17 rto:vector:count 0
scalar SingleCell_D2D.ueD2DRx[0].tcp.conn-17 rto:vector:sum 0
scalar SingleCell_D2D.ueD2DRx[0].tcp.conn-17 rto:vector:sumweights 0
scalar SingleCell_D2D.ueD2DRx[0].tcp.conn-17 rto:vector:mean -nan
scalar SingleCell_D2D.ueD2DRx[0].tcp.conn-17 rto:vector:stddev nan
scalar SingleCell_D2D.ueD2DRx[0].tcp.conn-17 rto:vector:min inf
scalar SingleCell_D2D.ueD2DRx[0].tcp.conn-17 rto:vector:max -inf
scalar SingleCell_D2D.ueD2DRx[0].tcp.conn-17 rto:vector:starttime nan
scalar SingleCell_D2D.ueD2DRx[0].tcp.conn-17 rto:vector:endtime nan
scalar SingleCell_D2D.ueD2DRx[0].tcp.conn-17 numRtos:vector:count 0
scalar SingleCell_D2D.ueD2DRx[0].tcp.conn-17 numRtos:vector:sum 0
scalar SingleCell_D2D.ueD2DRx[0].tcp.conn-17 numRtos:vector:sumweights 0
scalar SingleCell_D2D.ueD2DRx[0].tcp.conn-17 numRtos:vector:mean -nan
scalar SingleCell_D2D.ueD2DRx[0].tcp.conn-17 numRtos:vector:stddev nan
scalar SingleCell_D2D.ueD2DRx[0].tcp.conn-17 numRtos:vector:min inf
scalar SingleCell_D2D.ueD2DRx[0].tcp.conn-17 numRtos:vector:max -inf
scalar SingleCell_D2D.ueD2DRx[0].tcp.conn-17 numRtos:vector:starttime nan
scalar SingleCell_D2D.ueD2DRx[0].tcp.conn-17 numRtos:vector:endtime nan
scalar SingleCell_D2D.ueD2DRx[0].tcp.conn-17 load:vector:count 0
scalar SingleCell_D2D.ueD2DRx[0].tcp.conn-17 load:vector:sum 0
scalar SingleCell_D2D.ueD2DRx[0].tcp.conn-17 load:vector:sumweights 0
scalar SingleCell_D2D.ueD2DRx[0].tcp.conn-17 load:vector:mean -nan
scalar SingleCell_D2D.ueD2DRx[0].tcp.conn-17 load:vector:stddev nan
scalar SingleCell_D2D.ueD2DRx[0].tcp.conn-17 load:vector:min inf
scalar SingleCell_D2D.ueD2DRx[0].tcp.conn-17 load:vector:max -inf
scalar SingleCell_D2D.ueD2DRx[0].tcp.conn-17 load:vector:starttime nan
scalar SingleCell_D2D.ueD2DRx[0].tcp.conn-17 load:vector:endtime nan
scalar SingleCell_D2D.ueD2DRx[0].tcp.conn-17 calcLoad:vector:count 0
scalar SingleCell_D2D.ueD2DRx[0].tcp.conn-17 calcLoad:vector:sum 0
scalar SingleCell_D2D.ueD2DRx[0].tcp.conn-17 calcLoad:vector:sumweights 0
scalar SingleCell_D2D.ueD2DRx[0].tcp.conn-17 calcLoad:vector:mean -nan
scalar SingleCell_D2D.ueD2DRx[0].tcp.conn-17 calcLoad:vector:stddev nan
scalar SingleCell_D2D.ueD2DRx[0].tcp.conn-17 calcLoad:vector:min inf
scalar SingleCell_D2D.ueD2DRx[0].tcp.conn-17 calcLoad:vector:max -inf
scalar SingleCell_D2D.ueD2DRx[0].tcp.conn-17 calcLoad:vector:starttime nan
scalar SingleCell_D2D.ueD2DRx[0].tcp.conn-17 calcLoad:vector:endtime nan
scalar SingleCell_D2D.ueD2DRx[0].tcp.conn-17 markingProb:vector:count 0
scalar SingleCell_D2D.ueD2DRx[0].tcp.conn-17 markingProb:vector:sum 0
scalar SingleCell_D2D.ueD2DRx[0].tcp.conn-17 markingProb:vector:sumweights 0
scalar SingleCell_D2D.ueD2DRx[0].tcp.conn-17 markingProb:vector:mean -nan
scalar SingleCell_D2D.ueD2DRx[0].tcp.conn-17 markingProb:vector:stddev nan
scalar SingleCell_D2D.ueD2DRx[0].tcp.conn-17 markingProb:vector:min inf
scalar SingleCell_D2D.ueD2DRx[0].tcp.conn-17 markingProb:vector:max -inf
scalar SingleCell_D2D.ueD2DRx[0].tcp.conn-17 markingProb:vector:starttime nan
scalar SingleCell_D2D.ueD2DRx[0].tcp.conn-17 markingProb:vector:endtime nan
scalar SingleCell_D2D.ueD2DRx[0].app[0].thread_17 packetReceived:vector(packetBytes):count 2073
scalar SingleCell_D2D.ueD2DRx[0].app[0].thread_17 packetReceived:vector(packetBytes):sum 1111128
scalar SingleCell_D2D.ueD2DRx[0].app[0].thread_17 packetReceived:vector(packetBytes):sumweights 2073
scalar SingleCell_D2D.ueD2DRx[0].app[0].thread_17 packetReceived:vector(packetBytes):mean 536
scalar SingleCell_D2D.ueD2DRx[0].app[0].thread_17 packetReceived:vector(packetBytes):stddev 0
scalar SingleCell_D2D.ueD2DRx[0].app[0].thread_17 packetReceived:vector(packetBytes):min 536
scalar SingleCell_D2D.ueD2DRx[0].app[0].thread_17 packetReceived:vector(packetBytes):max 536
scalar SingleCell_D2D.ueD2DRx[0].app[0].thread_17 packetReceived:vector(packetBytes):starttime 0.49099999999999999
scalar SingleCell_D2D.ueD2DRx[0].app[0].thread_17 packetReceived:vector(packetBytes):endtime 4.992
scalar SingleCell_D2D.ueD2DRx[0].app[0].thread_17 endToEndDelay:vector:count 2073
scalar SingleCell_D2D.ueD2DRx[0].app[0].thread_17 endToEndDelay:vector:sum 4785.3753948740723
scalar SingleCell_D2D.ueD2DRx[0].app[0].thread_17 endToEndDelay:vector:sumweights 2073
scalar SingleCell_D2D.ueD2DRx[0].app[0].thread_17 endToEndDelay:vector:mean 2.3084300023512165
scalar SingleCell_D2D.ueD2DRx[0].app[0].thread_17 endToEndDelay:vector:stddev 1.2828857173152137
scalar SingleCell_D2D.ueD2DRx[0].app[0].thread_17 endToEndDelay:vector:min 0.014156003315999999
scalar SingleCell_D2D.ueD2DRx[0].app[0].thread_17 endToEndDelay:vector:max 4.5151560033160001
scalar SingleCell_D2D.ueD2DRx[0].app[0].thread_17 endToEndDelay:vector:starttime 0.49099999999999999
scalar SingleCell_D2D.ueD2DRx[0].app[0].thread_17 endToEndDelay:vector:endtime 4.992

