version 3
run SinglePair-modeSwitching-UDP-0-20260710-11:02:41-691537
attr configname SinglePair-modeSwitching-UDP
attr datetime 20260710-11:02:41
attr datetimef 20260710-110241
attr experiment SinglePair-modeSwitching-UDP
attr inifile omnetpp.ini
attr iterationvars ""
attr iterationvarsd ""
attr iterationvarsf ""
attr measurement ""
attr network simu5g.simulations.lte.networks.SingleCell_D2D
attr processid 691537
attr repetition 0
attr replication #0
attr resultdir results
attr runnumber 0
attr seedset 0
config **.param-recording false
config image-path /home/andras/projects/Simu5G-fork/simu5g-fork/images
config output-scalar-file results/omnetpp.ini-SinglePair-modeSwitching-UDP-#0.sca
config output-scalar-precision 17
config output-vector-file results/omnetpp.ini-SinglePair-modeSwitching-UDP-#0.vec
config output-vector-precision 17
config record-eventlog false
config sim-time-limit 5s
config extends SinglePair-modeSwitching
config *.ueD2D*[0].numApps 1
config *.ueD2D*[*].cellularNic.d2dInitialMode true
config *.ueD2DTx[0].app[*].typename VoipSender
config *.ueD2DTx[0].app[*].localPort 3088+ancestorIndex(0)
config *.ueD2DTx[0].app[*].startTime uniform(0s,0.02s)
config *.ueD2DTx[0].app[*].destAddress "\"ueD2DRx[0]\""
config *.ueD2DTx[0].app[*].destPort 1000
config *.ueD2DRx[0].app[*].typename VoipReceiver
config *.ueD2DRx[0].app[*].localPort 1000
config network simu5g.simulations.lte.networks.SingleCell_D2D
config sim-time-limit 50s
config warmup-period 0s
config **.cellularNic.channelModel[0].fading false
config **.cellularNic.channelModel[0].shadowing false
config *.eNB.mobility.initFromDisplayString false
config *.eNB.mobility.initialX 300m
config *.eNB.mobility.initialY 300m
config *.numUeCell 0
config *.numUeD2DTx 1
config *.numUeD2DRx 1
config *.ue*[0].macCellId 1
config *.ue*[0].masterId 1
config *.ue*[0].mobility.initFromDisplayString false
config *.ue*[0].mobility.typename LinearMobility
config *.ue*[0].mobility.speed 10mps
config *.ueD2DTx[0].mobility.initialX 290m
config *.ueD2DTx[0].mobility.initialY 400m
config *.ueD2DTx[0].mobility.constraintAreaMinX 200m
config *.ueD2DTx[0].mobility.constraintAreaMaxX 290m
config *.ueD2DTx[0].mobility.initialMovementHeading 180deg
config *.ueD2DRx[0].mobility.initialX 310m
config *.ueD2DRx[0].mobility.initialY 400m
config *.ueD2DRx[0].mobility.constraintAreaMinX 310m
config *.ueD2DRx[0].mobility.constraintAreaMaxX 400m
config *.ueD2DRx[0].mobility.initialMovementHeading 0deg
config *.eNB*.cellularNic.typename LteNicEnbD2D
config *.ueD2D*[*].cellularNic.typename LteNicUeD2D
config **.amcMode "\"D2D\""
config *.ueD2D*[*].cellularNic.d2dInitialMode true
config **.usePreconfiguredTxParams false
config *.eNB.cellularNic.phy.enableD2DCqiReporting true
config *.eNB.cellularNic.d2dModeSelection.typename D2DModeSelectionBestCqi
config sim-time-limit 5s
config warmup-period 0s
config repeat 3
config **.routingRecorder.enabled false
config output-scalar-file results/SinglePair-modeSwitching-UDP/0.sca
config output-vector-file results/SinglePair-modeSwitching-UDP/0.vec
config seed-set 0
config **.vector-recording true
config **.mobility.constraintAreaMinZ 0m
config **.mobility.constraintAreaMaxZ 0m
config **.numBands 50
config *.configurator.config "xmldoc(\"./demo.xml\")"

scalar SingleCell_D2D.server.lo[0].lo rcvdPkFromHl:count 0
scalar SingleCell_D2D.server.lo[0].lo rcvdPkFromHl:sum(packetBytes) 0
scalar SingleCell_D2D.server.lo[0].lo passedUpPk:count 0
scalar SingleCell_D2D.server.lo[0].lo passedUpPk:sum(packetBytes) 0
scalar SingleCell_D2D.server.lo[0] packetDropInterfaceDown:count 0
scalar SingleCell_D2D.server.lo[0] packetDropInterfaceDown:sum(packetBytes) 0
scalar SingleCell_D2D.server.lo[0] packetDropNoCarrier:count 0
scalar SingleCell_D2D.server.lo[0] packetDropNoCarrier:sum(packetBytes) 0
scalar SingleCell_D2D.server.ppp[0].queue queueLength:last 0
scalar SingleCell_D2D.server.ppp[0].queue queueLength:max 0
scalar SingleCell_D2D.server.ppp[0].queue queueLength:timeavg 0
scalar SingleCell_D2D.server.ppp[0].queue queueBitLength:last 0
scalar SingleCell_D2D.server.ppp[0].queue queueBitLength:max 0
scalar SingleCell_D2D.server.ppp[0].queue queueBitLength:timeavg 0
scalar SingleCell_D2D.server.ppp[0].queue outgoingPackets:count 0
scalar SingleCell_D2D.server.ppp[0].queue outgoingPacketLengths:sum 0
scalar SingleCell_D2D.server.ppp[0].queue incomingPackets:count 0
scalar SingleCell_D2D.server.ppp[0].queue incomingPacketLengths:sum 0
scalar SingleCell_D2D.server.ppp[0].queue droppedPacketsQueueOverflow:count 0
scalar SingleCell_D2D.server.ppp[0].queue droppedPacketLengthsQueueOverflow:sum 0
scalar SingleCell_D2D.server.ppp[0].ppp transmissionState:timeavg 0
scalar SingleCell_D2D.server.ppp[0].ppp rxPkOk:count 0
scalar SingleCell_D2D.server.ppp[0].ppp rxPkOk:sum(packetBytes) 0
scalar SingleCell_D2D.server.ppp[0].ppp txPk:count 0
scalar SingleCell_D2D.server.ppp[0].ppp txPk:sum(packetBytes) 0
scalar SingleCell_D2D.server.ppp[0].ppp rcvdPkFromHl:count 0
scalar SingleCell_D2D.server.ppp[0].ppp rcvdPkFromHl:sum(packetBytes) 0
scalar SingleCell_D2D.server.ppp[0].ppp passedUpPk:count 0
scalar SingleCell_D2D.server.ppp[0].ppp passedUpPk:sum(packetBytes) 0
scalar SingleCell_D2D.server.ppp[0].ppp packetDropIncorrectlyReceived:count 0
scalar SingleCell_D2D.server.ppp[0].ppp packetDropIncorrectlyReceived:sum(packetBytes) 0
scalar SingleCell_D2D.server.ppp[0].ppp packetDropInterfaceDown:count 0
scalar SingleCell_D2D.server.ppp[0].ppp packetDropInterfaceDown:sum(packetBytes) 0
scalar SingleCell_D2D.server.ppp[0] packetDropInterfaceDown:count 0
scalar SingleCell_D2D.server.ppp[0] packetDropInterfaceDown:sum(packetBytes) 0
scalar SingleCell_D2D.server.ppp[0] packetDropNoCarrier:count 0
scalar SingleCell_D2D.server.ppp[0] packetDropNoCarrier:sum(packetBytes) 0
scalar SingleCell_D2D.server.ipv4.ip packetDropAddressResolutionFailed:count 0
scalar SingleCell_D2D.server.ipv4.ip packetDropAddressResolutionFailed:sum(packetBytes) 0
scalar SingleCell_D2D.server.ipv4.ip packetDropHopLimitReached:count 0
scalar SingleCell_D2D.server.ipv4.ip packetDropHopLimitReached:sum(packetBytes) 0
scalar SingleCell_D2D.server.ipv4.ip packetDropForwardingDisabled:count 0
scalar SingleCell_D2D.server.ipv4.ip packetDropForwardingDisabled:sum(packetBytes) 0
scalar SingleCell_D2D.server.ipv4.ip packetDropNoInterfaceFound:count 0
scalar SingleCell_D2D.server.ipv4.ip packetDropNoInterfaceFound:sum(packetBytes) 0
scalar SingleCell_D2D.server.ipv4.ip packetDropNoRouteFound:count 0
scalar SingleCell_D2D.server.ipv4.ip packetDropNoRouteFound:sum(packetBytes) 0
scalar SingleCell_D2D.server.ipv4.ip packetDropUndefined:count 0
scalar SingleCell_D2D.server.ipv4.ip packetDropUndefined:sum(packetBytes) 0
scalar SingleCell_D2D.server.ipv4.arp arpResolutionFailed:count 0
scalar SingleCell_D2D.server.ipv4.arp arpResolutionCompleted:count 0
scalar SingleCell_D2D.server.ipv4.arp arpResolutionInitiated:count 0
scalar SingleCell_D2D.server.ipv4.arp arpReplySent:count 0
scalar SingleCell_D2D.server.ipv4.arp arpReplySent:sum(packetBytes) 0
scalar SingleCell_D2D.server.ipv4.arp arpRequestSent:count 0
scalar SingleCell_D2D.server.ipv4.arp arpRequestSent:sum(packetBytes) 0
scalar SingleCell_D2D.server.udp packetReceived:count 0
scalar SingleCell_D2D.server.udp packetReceived:sum(packetBytes) 0
scalar SingleCell_D2D.server.udp packetSent:count 0
scalar SingleCell_D2D.server.udp packetSent:sum(packetBytes) 0
scalar SingleCell_D2D.server.udp passedUpPk:count 0
scalar SingleCell_D2D.server.udp droppedPkWrongPort:count 0
scalar SingleCell_D2D.server.udp droppedPkBadChecksum:count 0
scalar SingleCell_D2D.router.lo[0].lo rcvdPkFromHl:count 0
scalar SingleCell_D2D.router.lo[0].lo rcvdPkFromHl:sum(packetBytes) 0
scalar SingleCell_D2D.router.lo[0].lo passedUpPk:count 0
scalar SingleCell_D2D.router.lo[0].lo passedUpPk:sum(packetBytes) 0
scalar SingleCell_D2D.router.lo[0] packetDropInterfaceDown:count 0
scalar SingleCell_D2D.router.lo[0] packetDropInterfaceDown:sum(packetBytes) 0
scalar SingleCell_D2D.router.lo[0] packetDropNoCarrier:count 0
scalar SingleCell_D2D.router.lo[0] packetDropNoCarrier:sum(packetBytes) 0
scalar SingleCell_D2D.router.ppp[0].queue queueLength:last 0
scalar SingleCell_D2D.router.ppp[0].queue queueLength:max 0
scalar SingleCell_D2D.router.ppp[0].queue queueLength:timeavg 0
scalar SingleCell_D2D.router.ppp[0].queue queueBitLength:last 0
scalar SingleCell_D2D.router.ppp[0].queue queueBitLength:max 0
scalar SingleCell_D2D.router.ppp[0].queue queueBitLength:timeavg 0
scalar SingleCell_D2D.router.ppp[0].queue outgoingPackets:count 0
scalar SingleCell_D2D.router.ppp[0].queue outgoingPacketLengths:sum 0
scalar SingleCell_D2D.router.ppp[0].queue incomingPackets:count 0
scalar SingleCell_D2D.router.ppp[0].queue incomingPacketLengths:sum 0
scalar SingleCell_D2D.router.ppp[0].queue droppedPacketsQueueOverflow:count 0
scalar SingleCell_D2D.router.ppp[0].queue droppedPacketLengthsQueueOverflow:sum 0
scalar SingleCell_D2D.router.ppp[0].ppp transmissionState:timeavg 0
scalar SingleCell_D2D.router.ppp[0].ppp rxPkOk:count 0
scalar SingleCell_D2D.router.ppp[0].ppp rxPkOk:sum(packetBytes) 0
scalar SingleCell_D2D.router.ppp[0].ppp txPk:count 0
scalar SingleCell_D2D.router.ppp[0].ppp txPk:sum(packetBytes) 0
scalar SingleCell_D2D.router.ppp[0].ppp rcvdPkFromHl:count 0
scalar SingleCell_D2D.router.ppp[0].ppp rcvdPkFromHl:sum(packetBytes) 0
scalar SingleCell_D2D.router.ppp[0].ppp passedUpPk:count 0
scalar SingleCell_D2D.router.ppp[0].ppp passedUpPk:sum(packetBytes) 0
scalar SingleCell_D2D.router.ppp[0].ppp packetDropIncorrectlyReceived:count 0
scalar SingleCell_D2D.router.ppp[0].ppp packetDropIncorrectlyReceived:sum(packetBytes) 0
scalar SingleCell_D2D.router.ppp[0].ppp packetDropInterfaceDown:count 0
scalar SingleCell_D2D.router.ppp[0].ppp packetDropInterfaceDown:sum(packetBytes) 0
scalar SingleCell_D2D.router.ppp[0] packetDropInterfaceDown:count 0
scalar SingleCell_D2D.router.ppp[0] packetDropInterfaceDown:sum(packetBytes) 0
scalar SingleCell_D2D.router.ppp[0] packetDropNoCarrier:count 0
scalar SingleCell_D2D.router.ppp[0] packetDropNoCarrier:sum(packetBytes) 0
scalar SingleCell_D2D.router.ppp[1].queue queueLength:last 0
scalar SingleCell_D2D.router.ppp[1].queue queueLength:max 0
scalar SingleCell_D2D.router.ppp[1].queue queueLength:timeavg 0
scalar SingleCell_D2D.router.ppp[1].queue queueBitLength:last 0
scalar SingleCell_D2D.router.ppp[1].queue queueBitLength:max 0
scalar SingleCell_D2D.router.ppp[1].queue queueBitLength:timeavg 0
scalar SingleCell_D2D.router.ppp[1].queue outgoingPackets:count 0
scalar SingleCell_D2D.router.ppp[1].queue outgoingPacketLengths:sum 0
scalar SingleCell_D2D.router.ppp[1].queue incomingPackets:count 0
scalar SingleCell_D2D.router.ppp[1].queue incomingPacketLengths:sum 0
scalar SingleCell_D2D.router.ppp[1].queue droppedPacketsQueueOverflow:count 0
scalar SingleCell_D2D.router.ppp[1].queue droppedPacketLengthsQueueOverflow:sum 0
scalar SingleCell_D2D.router.ppp[1].ppp transmissionState:timeavg 0
scalar SingleCell_D2D.router.ppp[1].ppp rxPkOk:count 0
scalar SingleCell_D2D.router.ppp[1].ppp rxPkOk:sum(packetBytes) 0
scalar SingleCell_D2D.router.ppp[1].ppp txPk:count 0
scalar SingleCell_D2D.router.ppp[1].ppp txPk:sum(packetBytes) 0
scalar SingleCell_D2D.router.ppp[1].ppp rcvdPkFromHl:count 0
scalar SingleCell_D2D.router.ppp[1].ppp rcvdPkFromHl:sum(packetBytes) 0
scalar SingleCell_D2D.router.ppp[1].ppp passedUpPk:count 0
scalar SingleCell_D2D.router.ppp[1].ppp passedUpPk:sum(packetBytes) 0
scalar SingleCell_D2D.router.ppp[1].ppp packetDropIncorrectlyReceived:count 0
scalar SingleCell_D2D.router.ppp[1].ppp packetDropIncorrectlyReceived:sum(packetBytes) 0
scalar SingleCell_D2D.router.ppp[1].ppp packetDropInterfaceDown:count 0
scalar SingleCell_D2D.router.ppp[1].ppp packetDropInterfaceDown:sum(packetBytes) 0
scalar SingleCell_D2D.router.ppp[1] packetDropInterfaceDown:count 0
scalar SingleCell_D2D.router.ppp[1] packetDropInterfaceDown:sum(packetBytes) 0
scalar SingleCell_D2D.router.ppp[1] packetDropNoCarrier:count 0
scalar SingleCell_D2D.router.ppp[1] packetDropNoCarrier:sum(packetBytes) 0
scalar SingleCell_D2D.router.ipv4.ip packetDropAddressResolutionFailed:count 0
scalar SingleCell_D2D.router.ipv4.ip packetDropAddressResolutionFailed:sum(packetBytes) 0
scalar SingleCell_D2D.router.ipv4.ip packetDropHopLimitReached:count 0
scalar SingleCell_D2D.router.ipv4.ip packetDropHopLimitReached:sum(packetBytes) 0
scalar SingleCell_D2D.router.ipv4.ip packetDropForwardingDisabled:count 0
scalar SingleCell_D2D.router.ipv4.ip packetDropForwardingDisabled:sum(packetBytes) 0
scalar SingleCell_D2D.router.ipv4.ip packetDropNoInterfaceFound:count 0
scalar SingleCell_D2D.router.ipv4.ip packetDropNoInterfaceFound:sum(packetBytes) 0
scalar SingleCell_D2D.router.ipv4.ip packetDropNoRouteFound:count 0
scalar SingleCell_D2D.router.ipv4.ip packetDropNoRouteFound:sum(packetBytes) 0
scalar SingleCell_D2D.router.ipv4.ip packetDropUndefined:count 0
scalar SingleCell_D2D.router.ipv4.ip packetDropUndefined:sum(packetBytes) 0
scalar SingleCell_D2D.router.ipv4.arp arpResolutionFailed:count 0
scalar SingleCell_D2D.router.ipv4.arp arpResolutionCompleted:count 0
scalar SingleCell_D2D.router.ipv4.arp arpResolutionInitiated:count 0
scalar SingleCell_D2D.router.ipv4.arp arpReplySent:count 0
scalar SingleCell_D2D.router.ipv4.arp arpReplySent:sum(packetBytes) 0
scalar SingleCell_D2D.router.ipv4.arp arpRequestSent:count 0
scalar SingleCell_D2D.router.ipv4.arp arpRequestSent:sum(packetBytes) 0
scalar SingleCell_D2D.pgw.lo[0].lo rcvdPkFromHl:count 0
scalar SingleCell_D2D.pgw.lo[0].lo rcvdPkFromHl:sum(packetBytes) 0
scalar SingleCell_D2D.pgw.lo[0].lo passedUpPk:count 0
scalar SingleCell_D2D.pgw.lo[0].lo passedUpPk:sum(packetBytes) 0
scalar SingleCell_D2D.pgw.lo[0] packetDropInterfaceDown:count 0
scalar SingleCell_D2D.pgw.lo[0] packetDropInterfaceDown:sum(packetBytes) 0
scalar SingleCell_D2D.pgw.lo[0] packetDropNoCarrier:count 0
scalar SingleCell_D2D.pgw.lo[0] packetDropNoCarrier:sum(packetBytes) 0
scalar SingleCell_D2D.pgw.ppp[0].queue queueLength:last 0
scalar SingleCell_D2D.pgw.ppp[0].queue queueLength:max 0
scalar SingleCell_D2D.pgw.ppp[0].queue queueLength:timeavg 0
scalar SingleCell_D2D.pgw.ppp[0].queue queueBitLength:last 0
scalar SingleCell_D2D.pgw.ppp[0].queue queueBitLength:max 0
scalar SingleCell_D2D.pgw.ppp[0].queue queueBitLength:timeavg 0
scalar SingleCell_D2D.pgw.ppp[0].queue outgoingPackets:count 0
scalar SingleCell_D2D.pgw.ppp[0].queue outgoingPacketLengths:sum 0
scalar SingleCell_D2D.pgw.ppp[0].queue incomingPackets:count 0
scalar SingleCell_D2D.pgw.ppp[0].queue incomingPacketLengths:sum 0
scalar SingleCell_D2D.pgw.ppp[0].queue droppedPacketsQueueOverflow:count 0
scalar SingleCell_D2D.pgw.ppp[0].queue droppedPacketLengthsQueueOverflow:sum 0
scalar SingleCell_D2D.pgw.ppp[0].ppp transmissionState:timeavg 0
scalar SingleCell_D2D.pgw.ppp[0].ppp rxPkOk:count 0
scalar SingleCell_D2D.pgw.ppp[0].ppp rxPkOk:sum(packetBytes) 0
scalar SingleCell_D2D.pgw.ppp[0].ppp txPk:count 0
scalar SingleCell_D2D.pgw.ppp[0].ppp txPk:sum(packetBytes) 0
scalar SingleCell_D2D.pgw.ppp[0].ppp rcvdPkFromHl:count 0
scalar SingleCell_D2D.pgw.ppp[0].ppp rcvdPkFromHl:sum(packetBytes) 0
scalar SingleCell_D2D.pgw.ppp[0].ppp passedUpPk:count 0
scalar SingleCell_D2D.pgw.ppp[0].ppp passedUpPk:sum(packetBytes) 0
scalar SingleCell_D2D.pgw.ppp[0].ppp packetDropIncorrectlyReceived:count 0
scalar SingleCell_D2D.pgw.ppp[0].ppp packetDropIncorrectlyReceived:sum(packetBytes) 0
scalar SingleCell_D2D.pgw.ppp[0].ppp packetDropInterfaceDown:count 0
scalar SingleCell_D2D.pgw.ppp[0].ppp packetDropInterfaceDown:sum(packetBytes) 0
scalar SingleCell_D2D.pgw.ppp[0] packetDropInterfaceDown:count 0
scalar SingleCell_D2D.pgw.ppp[0] packetDropInterfaceDown:sum(packetBytes) 0
scalar SingleCell_D2D.pgw.ppp[0] packetDropNoCarrier:count 0
scalar SingleCell_D2D.pgw.ppp[0] packetDropNoCarrier:sum(packetBytes) 0
scalar SingleCell_D2D.pgw.ipv4.ip packetDropAddressResolutionFailed:count 0
scalar SingleCell_D2D.pgw.ipv4.ip packetDropAddressResolutionFailed:sum(packetBytes) 0
scalar SingleCell_D2D.pgw.ipv4.ip packetDropHopLimitReached:count 0
scalar SingleCell_D2D.pgw.ipv4.ip packetDropHopLimitReached:sum(packetBytes) 0
scalar SingleCell_D2D.pgw.ipv4.ip packetDropForwardingDisabled:count 0
scalar SingleCell_D2D.pgw.ipv4.ip packetDropForwardingDisabled:sum(packetBytes) 0
scalar SingleCell_D2D.pgw.ipv4.ip packetDropNoInterfaceFound:count 0
scalar SingleCell_D2D.pgw.ipv4.ip packetDropNoInterfaceFound:sum(packetBytes) 0
scalar SingleCell_D2D.pgw.ipv4.ip packetDropNoRouteFound:count 0
scalar SingleCell_D2D.pgw.ipv4.ip packetDropNoRouteFound:sum(packetBytes) 0
scalar SingleCell_D2D.pgw.ipv4.ip packetDropUndefined:count 0
scalar SingleCell_D2D.pgw.ipv4.ip packetDropUndefined:sum(packetBytes) 0
scalar SingleCell_D2D.pgw.ipv4.arp arpResolutionFailed:count 0
scalar SingleCell_D2D.pgw.ipv4.arp arpResolutionCompleted:count 0
scalar SingleCell_D2D.pgw.ipv4.arp arpResolutionInitiated:count 0
scalar SingleCell_D2D.pgw.ipv4.arp arpReplySent:count 0
scalar SingleCell_D2D.pgw.ipv4.arp arpReplySent:sum(packetBytes) 0
scalar SingleCell_D2D.pgw.ipv4.arp arpRequestSent:count 0
scalar SingleCell_D2D.pgw.ipv4.arp arpRequestSent:sum(packetBytes) 0
scalar SingleCell_D2D.pgw.pppIf.queue queueLength:last 0
scalar SingleCell_D2D.pgw.pppIf.queue queueLength:max 0
scalar SingleCell_D2D.pgw.pppIf.queue queueLength:timeavg 0
scalar SingleCell_D2D.pgw.pppIf.queue queueBitLength:last 0
scalar SingleCell_D2D.pgw.pppIf.queue queueBitLength:max 0
scalar SingleCell_D2D.pgw.pppIf.queue queueBitLength:timeavg 0
scalar SingleCell_D2D.pgw.pppIf.queue outgoingPackets:count 0
scalar SingleCell_D2D.pgw.pppIf.queue outgoingPacketLengths:sum 0
scalar SingleCell_D2D.pgw.pppIf.queue incomingPackets:count 0
scalar SingleCell_D2D.pgw.pppIf.queue incomingPacketLengths:sum 0
scalar SingleCell_D2D.pgw.pppIf.queue droppedPacketsQueueOverflow:count 0
scalar SingleCell_D2D.pgw.pppIf.queue droppedPacketLengthsQueueOverflow:sum 0
scalar SingleCell_D2D.pgw.pppIf.ppp transmissionState:timeavg 0
scalar SingleCell_D2D.pgw.pppIf.ppp rxPkOk:count 0
scalar SingleCell_D2D.pgw.pppIf.ppp rxPkOk:sum(packetBytes) 0
scalar SingleCell_D2D.pgw.pppIf.ppp txPk:count 0
scalar SingleCell_D2D.pgw.pppIf.ppp txPk:sum(packetBytes) 0
scalar SingleCell_D2D.pgw.pppIf.ppp rcvdPkFromHl:count 0
scalar SingleCell_D2D.pgw.pppIf.ppp rcvdPkFromHl:sum(packetBytes) 0
scalar SingleCell_D2D.pgw.pppIf.ppp passedUpPk:count 0
scalar SingleCell_D2D.pgw.pppIf.ppp passedUpPk:sum(packetBytes) 0
scalar SingleCell_D2D.pgw.pppIf.ppp packetDropIncorrectlyReceived:count 0
scalar SingleCell_D2D.pgw.pppIf.ppp packetDropIncorrectlyReceived:sum(packetBytes) 0
scalar SingleCell_D2D.pgw.pppIf.ppp packetDropInterfaceDown:count 0
scalar SingleCell_D2D.pgw.pppIf.ppp packetDropInterfaceDown:sum(packetBytes) 0
scalar SingleCell_D2D.pgw.pppIf packetDropInterfaceDown:count 0
scalar SingleCell_D2D.pgw.pppIf packetDropInterfaceDown:sum(packetBytes) 0
scalar SingleCell_D2D.pgw.pppIf packetDropNoCarrier:count 0
scalar SingleCell_D2D.pgw.pppIf packetDropNoCarrier:sum(packetBytes) 0
scalar SingleCell_D2D.pgw.udp packetReceived:count 0
scalar SingleCell_D2D.pgw.udp packetReceived:sum(packetBytes) 0
scalar SingleCell_D2D.pgw.udp packetSent:count 0
scalar SingleCell_D2D.pgw.udp packetSent:sum(packetBytes) 0
scalar SingleCell_D2D.pgw.udp passedUpPk:count 0
scalar SingleCell_D2D.pgw.udp droppedPkWrongPort:count 0
scalar SingleCell_D2D.pgw.udp droppedPkBadChecksum:count 0
scalar SingleCell_D2D.eNB.cellularNic.pdcp sentPacketToLowerLayer:count 37
scalar SingleCell_D2D.eNB.cellularNic.pdcp sentPacketToLowerLayer:sum(packetBytes) 2553
scalar SingleCell_D2D.eNB.cellularNic.pdcp sentPacketToUpperLayer:count 37
scalar SingleCell_D2D.eNB.cellularNic.pdcp sentPacketToUpperLayer:sum(packetBytes) 2516
scalar SingleCell_D2D.eNB.cellularNic.pdcp receivedPacketFromLowerLayer:count 37
scalar SingleCell_D2D.eNB.cellularNic.pdcp receivedPacketFromLowerLayer:sum(packetBytes) 2553
scalar SingleCell_D2D.eNB.cellularNic.pdcp receivedPacketFromUpperLayer:count 37
scalar SingleCell_D2D.eNB.cellularNic.pdcp receivedPacketFromUpperLayer:sum(packetBytes) 2516
scalar SingleCell_D2D.eNB.cellularNic.rlc.tm rlcPacketLossUl:mean -nan
scalar SingleCell_D2D.eNB.cellularNic.rlc.tm rlcPacketLossUl:sum 0
scalar SingleCell_D2D.eNB.cellularNic.rlc.tm rlcPacketLossDl:mean -nan
scalar SingleCell_D2D.eNB.cellularNic.rlc.tm rlcPacketLossDl:sum 0
scalar SingleCell_D2D.eNB.cellularNic.rlc.tm sentPacketToLowerLayer:count 0
scalar SingleCell_D2D.eNB.cellularNic.rlc.tm sentPacketToLowerLayer:sum(packetBytes) 0
scalar SingleCell_D2D.eNB.cellularNic.rlc.tm sentPacketToUpperLayer:count 0
scalar SingleCell_D2D.eNB.cellularNic.rlc.tm sentPacketToUpperLayer:sum(packetBytes) 0
scalar SingleCell_D2D.eNB.cellularNic.rlc.tm receivedPacketFromLowerLayer:count 0
scalar SingleCell_D2D.eNB.cellularNic.rlc.tm receivedPacketFromLowerLayer:sum(packetBytes) 0
scalar SingleCell_D2D.eNB.cellularNic.rlc.tm receivedPacketFromUpperLayer:count 0
scalar SingleCell_D2D.eNB.cellularNic.rlc.tm receivedPacketFromUpperLayer:sum(packetBytes) 0
scalar SingleCell_D2D.eNB.cellularNic.rlc.um rlcCellThroughputD2D:simu5g_rateavg -nan
scalar SingleCell_D2D.eNB.cellularNic.rlc.um rlcPduThroughputD2D:simu5g_rateavg -nan
scalar SingleCell_D2D.eNB.cellularNic.rlc.um rlcPduDelayD2D:mean -nan
scalar SingleCell_D2D.eNB.cellularNic.rlc.um rlcThroughputD2D:simu5g_rateavg -nan
scalar SingleCell_D2D.eNB.cellularNic.rlc.um rlcDelayD2D:mean -nan
scalar SingleCell_D2D.eNB.cellularNic.rlc.um rlcCellThroughputUl:simu5g_rateavg 2256.8648294002342
scalar SingleCell_D2D.eNB.cellularNic.rlc.um rlcCellThroughputDl:simu5g_rateavg 2146.2460015055708
scalar SingleCell_D2D.eNB.cellularNic.rlc.um rlcPduThroughputUl:simu5g_rateavg -nan
scalar SingleCell_D2D.eNB.cellularNic.rlc.um rlcPduThroughputDl:simu5g_rateavg -nan
scalar SingleCell_D2D.eNB.cellularNic.rlc.um rlcPduDelayUl:mean -nan
scalar SingleCell_D2D.eNB.cellularNic.rlc.um rlcPduDelayDl:mean -nan
scalar SingleCell_D2D.eNB.cellularNic.rlc.um rlcThroughputUl:simu5g_rateavg -nan
scalar SingleCell_D2D.eNB.cellularNic.rlc.um rlcThroughputDl:simu5g_rateavg -nan
scalar SingleCell_D2D.eNB.cellularNic.rlc.um rlcDelayUl:mean -nan
scalar SingleCell_D2D.eNB.cellularNic.rlc.um rlcDelayDl:mean -nan
scalar SingleCell_D2D.eNB.cellularNic.rlc.um sentPacketToLowerLayer:count 37
scalar SingleCell_D2D.eNB.cellularNic.rlc.um sentPacketToLowerLayer:sum(packetBytes) 2627
scalar SingleCell_D2D.eNB.cellularNic.rlc.um sentPacketToUpperLayer:count 37
scalar SingleCell_D2D.eNB.cellularNic.rlc.um sentPacketToUpperLayer:sum(packetBytes) 2553
scalar SingleCell_D2D.eNB.cellularNic.rlc.um receivedPacketFromLowerLayer:count 37
scalar SingleCell_D2D.eNB.cellularNic.rlc.um receivedPacketFromLowerLayer:sum(packetBytes) 2627
scalar SingleCell_D2D.eNB.cellularNic.rlc.um receivedPacketFromUpperLayer:count 37
scalar SingleCell_D2D.eNB.cellularNic.rlc.um receivedPacketFromUpperLayer:sum(packetBytes) 2553
scalar SingleCell_D2D.eNB.cellularNic.rlc.am rlcPacketLossTotal:mean -nan
scalar SingleCell_D2D.eNB.cellularNic.rlc.am rlcCellThroughputUl:simu5g_rateavg -nan
scalar SingleCell_D2D.eNB.cellularNic.rlc.am rlcCellThroughputDl:simu5g_rateavg -nan
scalar SingleCell_D2D.eNB.cellularNic.rlc.am rlcPduThroughputUl:simu5g_rateavg -nan
scalar SingleCell_D2D.eNB.cellularNic.rlc.am rlcPduThroughputDl:simu5g_rateavg -nan
scalar SingleCell_D2D.eNB.cellularNic.rlc.am rlcPduDelayUl:mean -nan
scalar SingleCell_D2D.eNB.cellularNic.rlc.am rlcPduDelayDl:mean -nan
scalar SingleCell_D2D.eNB.cellularNic.rlc.am rlcThroughputUl:simu5g_rateavg -nan
scalar SingleCell_D2D.eNB.cellularNic.rlc.am rlcThroughputDl:simu5g_rateavg -nan
scalar SingleCell_D2D.eNB.cellularNic.rlc.am rlcDelayUl:mean -nan
scalar SingleCell_D2D.eNB.cellularNic.rlc.am rlcDelayDl:mean -nan
scalar SingleCell_D2D.eNB.cellularNic.rlc.am rlcPduPacketLossUl:mean -nan
scalar SingleCell_D2D.eNB.cellularNic.rlc.am rlcPduPacketLossDl:mean -nan
scalar SingleCell_D2D.eNB.cellularNic.rlc.am rlcPacketLossUl:mean -nan
scalar SingleCell_D2D.eNB.cellularNic.rlc.am rlcPacketLossDl:mean -nan
scalar SingleCell_D2D.eNB.cellularNic.rlc.am rlcCellPacketLossUl:mean -nan
scalar SingleCell_D2D.eNB.cellularNic.rlc.am rlcCellPacketLossDl:mean -nan
scalar SingleCell_D2D.eNB.cellularNic.mac avgServedBlocksUl:mean 0.1108
scalar SingleCell_D2D.eNB.cellularNic.mac avgServedBlocksDl:mean 0.0074000000000000003
scalar SingleCell_D2D.eNB.cellularNic.mac macCellPacketLossD2D:mean 0
scalar SingleCell_D2D.eNB.cellularNic.mac macCellThroughputD2D:simu5g_rateavg 2305.4374654476719
scalar SingleCell_D2D.eNB.cellularNic.mac harqTxAttemptsUl:mean -nan
scalar SingleCell_D2D.eNB.cellularNic.mac harqTxAttemptsDl:mean -nan
scalar SingleCell_D2D.eNB.cellularNic.mac harqErrorRate_4th_Ul:mean -nan
scalar SingleCell_D2D.eNB.cellularNic.mac harqErrorRate_4th_Dl:mean -nan
scalar SingleCell_D2D.eNB.cellularNic.mac harqErrorRate_3rd_Ul:mean -nan
scalar SingleCell_D2D.eNB.cellularNic.mac harqErrorRate_3rd_Dl:mean -nan
scalar SingleCell_D2D.eNB.cellularNic.mac harqErrorRate_2nd_Ul:mean -nan
scalar SingleCell_D2D.eNB.cellularNic.mac harqErrorRate_2nd_Dl:mean -nan
scalar SingleCell_D2D.eNB.cellularNic.mac harqErrorRate_1st_Ul:mean -nan
scalar SingleCell_D2D.eNB.cellularNic.mac harqErrorRate_1st_Dl:mean -nan
scalar SingleCell_D2D.eNB.cellularNic.mac harqErrorRateUl:mean -nan
scalar SingleCell_D2D.eNB.cellularNic.mac harqErrorRateDl:mean -nan
scalar SingleCell_D2D.eNB.cellularNic.mac macCellPacketLossUl:mean 0
scalar SingleCell_D2D.eNB.cellularNic.mac macCellPacketLossDl:mean 0
scalar SingleCell_D2D.eNB.cellularNic.mac macPacketLossUl:mean -nan
scalar SingleCell_D2D.eNB.cellularNic.mac macPacketLossDl:mean -nan
scalar SingleCell_D2D.eNB.cellularNic.mac macThroughputUl:simu5g_rateavg -nan
scalar SingleCell_D2D.eNB.cellularNic.mac macThroughputDl:simu5g_rateavg -nan
scalar SingleCell_D2D.eNB.cellularNic.mac macDelayUl:mean -nan
scalar SingleCell_D2D.eNB.cellularNic.mac macDelayDl:mean -nan
scalar SingleCell_D2D.eNB.cellularNic.mac macCellThroughputUl:simu5g_rateavg 2315.2449008099247
scalar SingleCell_D2D.eNB.cellularNic.mac macCellThroughputDl:simu5g_rateavg 2527.256163610522
scalar SingleCell_D2D.eNB.cellularNic.mac sentPacketToLowerLayer:count 1184
scalar SingleCell_D2D.eNB.cellularNic.mac sentPacketToLowerLayer:sum(packetBytes) 3848
scalar SingleCell_D2D.eNB.cellularNic.mac sentPacketToUpperLayer:count 74
scalar SingleCell_D2D.eNB.cellularNic.mac sentPacketToUpperLayer:sum(packetBytes) 2664
scalar SingleCell_D2D.eNB.cellularNic.mac receivedPacketFromLowerLayer:count 2425
scalar SingleCell_D2D.eNB.cellularNic.mac receivedPacketFromLowerLayer:sum(packetBytes) 5347
scalar SingleCell_D2D.eNB.cellularNic.mac receivedPacketFromUpperLayer:count 74
scalar SingleCell_D2D.eNB.cellularNic.mac receivedPacketFromUpperLayer:sum(packetBytes) 5254
scalar SingleCell_D2D.eNB.cellularNic.mac macBufferOverFlowD2D:mean -nan
scalar SingleCell_D2D.eNB.cellularNic.mac macBufferOverFlowUl:mean -nan
scalar SingleCell_D2D.eNB.cellularNic.mac macBufferOverFlowDl:mean -nan
scalar SingleCell_D2D.eNB.cellularNic.channelModel[0] measuredSinrUl:mean -nan
scalar SingleCell_D2D.eNB.cellularNic.channelModel[0] measuredSinrDl:mean -nan
scalar SingleCell_D2D.eNB.cellularNic.channelModel[0] rcvdSinrD2D:mean -nan
scalar SingleCell_D2D.eNB.cellularNic.channelModel[0] rcvdSinrUl:mean -nan
scalar SingleCell_D2D.eNB.cellularNic.channelModel[0] rcvdSinrDl:mean -nan
scalar SingleCell_D2D.eNB.cellularNic packetDropInterfaceDown:count 0
scalar SingleCell_D2D.eNB.cellularNic packetDropInterfaceDown:sum(packetBytes) 0
scalar SingleCell_D2D.eNB.cellularNic packetDropNoCarrier:count 0
scalar SingleCell_D2D.eNB.cellularNic packetDropNoCarrier:sum(packetBytes) 0
scalar SingleCell_D2D.eNB.pppIf.queue queueLength:last 0
scalar SingleCell_D2D.eNB.pppIf.queue queueLength:max 0
scalar SingleCell_D2D.eNB.pppIf.queue queueLength:timeavg 0
scalar SingleCell_D2D.eNB.pppIf.queue queueBitLength:last 0
scalar SingleCell_D2D.eNB.pppIf.queue queueBitLength:max 0
scalar SingleCell_D2D.eNB.pppIf.queue queueBitLength:timeavg 0
scalar SingleCell_D2D.eNB.pppIf.queue outgoingPackets:count 0
scalar SingleCell_D2D.eNB.pppIf.queue outgoingPacketLengths:sum 0
scalar SingleCell_D2D.eNB.pppIf.queue incomingPackets:count 0
scalar SingleCell_D2D.eNB.pppIf.queue incomingPacketLengths:sum 0
scalar SingleCell_D2D.eNB.pppIf.queue droppedPacketsQueueOverflow:count 0
scalar SingleCell_D2D.eNB.pppIf.queue droppedPacketLengthsQueueOverflow:sum 0
scalar SingleCell_D2D.eNB.pppIf.ppp transmissionState:timeavg 0
scalar SingleCell_D2D.eNB.pppIf.ppp rxPkOk:count 0
scalar SingleCell_D2D.eNB.pppIf.ppp rxPkOk:sum(packetBytes) 0
scalar SingleCell_D2D.eNB.pppIf.ppp txPk:count 0
scalar SingleCell_D2D.eNB.pppIf.ppp txPk:sum(packetBytes) 0
scalar SingleCell_D2D.eNB.pppIf.ppp rcvdPkFromHl:count 0
scalar SingleCell_D2D.eNB.pppIf.ppp rcvdPkFromHl:sum(packetBytes) 0
scalar SingleCell_D2D.eNB.pppIf.ppp passedUpPk:count 0
scalar SingleCell_D2D.eNB.pppIf.ppp passedUpPk:sum(packetBytes) 0
scalar SingleCell_D2D.eNB.pppIf.ppp packetDropIncorrectlyReceived:count 0
scalar SingleCell_D2D.eNB.pppIf.ppp packetDropIncorrectlyReceived:sum(packetBytes) 0
scalar SingleCell_D2D.eNB.pppIf.ppp packetDropInterfaceDown:count 0
scalar SingleCell_D2D.eNB.pppIf.ppp packetDropInterfaceDown:sum(packetBytes) 0
scalar SingleCell_D2D.eNB.pppIf packetDropInterfaceDown:count 0
scalar SingleCell_D2D.eNB.pppIf packetDropInterfaceDown:sum(packetBytes) 0
scalar SingleCell_D2D.eNB.pppIf packetDropNoCarrier:count 0
scalar SingleCell_D2D.eNB.pppIf packetDropNoCarrier:sum(packetBytes) 0
scalar SingleCell_D2D.eNB.pppMEHostIf.queue queueLength:last 0
scalar SingleCell_D2D.eNB.pppMEHostIf.queue queueLength:max 0
scalar SingleCell_D2D.eNB.pppMEHostIf.queue queueLength:timeavg 0
scalar SingleCell_D2D.eNB.pppMEHostIf.queue queueBitLength:last 0
scalar SingleCell_D2D.eNB.pppMEHostIf.queue queueBitLength:max 0
scalar SingleCell_D2D.eNB.pppMEHostIf.queue queueBitLength:timeavg 0
scalar SingleCell_D2D.eNB.pppMEHostIf.queue outgoingPackets:count 0
scalar SingleCell_D2D.eNB.pppMEHostIf.queue outgoingPacketLengths:sum 0
scalar SingleCell_D2D.eNB.pppMEHostIf.queue incomingPackets:count 0
scalar SingleCell_D2D.eNB.pppMEHostIf.queue incomingPacketLengths:sum 0
scalar SingleCell_D2D.eNB.pppMEHostIf.queue droppedPacketsQueueOverflow:count 0
scalar SingleCell_D2D.eNB.pppMEHostIf.queue droppedPacketLengthsQueueOverflow:sum 0
scalar SingleCell_D2D.eNB.pppMEHostIf.ppp transmissionState:timeavg 0
scalar SingleCell_D2D.eNB.pppMEHostIf.ppp rxPkOk:count 0
scalar SingleCell_D2D.eNB.pppMEHostIf.ppp rxPkOk:sum(packetBytes) 0
scalar SingleCell_D2D.eNB.pppMEHostIf.ppp txPk:count 0
scalar SingleCell_D2D.eNB.pppMEHostIf.ppp txPk:sum(packetBytes) 0
scalar SingleCell_D2D.eNB.pppMEHostIf.ppp rcvdPkFromHl:count 0
scalar SingleCell_D2D.eNB.pppMEHostIf.ppp rcvdPkFromHl:sum(packetBytes) 0
scalar SingleCell_D2D.eNB.pppMEHostIf.ppp passedUpPk:count 0
scalar SingleCell_D2D.eNB.pppMEHostIf.ppp passedUpPk:sum(packetBytes) 0
scalar SingleCell_D2D.eNB.pppMEHostIf.ppp packetDropIncorrectlyReceived:count 0
scalar SingleCell_D2D.eNB.pppMEHostIf.ppp packetDropIncorrectlyReceived:sum(packetBytes) 0
scalar SingleCell_D2D.eNB.pppMEHostIf.ppp packetDropInterfaceDown:count 0
scalar SingleCell_D2D.eNB.pppMEHostIf.ppp packetDropInterfaceDown:sum(packetBytes) 0
scalar SingleCell_D2D.eNB.pppMEHostIf packetDropInterfaceDown:count 0
scalar SingleCell_D2D.eNB.pppMEHostIf packetDropInterfaceDown:sum(packetBytes) 0
scalar SingleCell_D2D.eNB.pppMEHostIf packetDropNoCarrier:count 0
scalar SingleCell_D2D.eNB.pppMEHostIf packetDropNoCarrier:sum(packetBytes) 0
scalar SingleCell_D2D.eNB.ipv4.ip packetDropAddressResolutionFailed:count 0
scalar SingleCell_D2D.eNB.ipv4.ip packetDropAddressResolutionFailed:sum(packetBytes) 0
scalar SingleCell_D2D.eNB.ipv4.ip packetDropHopLimitReached:count 0
scalar SingleCell_D2D.eNB.ipv4.ip packetDropHopLimitReached:sum(packetBytes) 0
scalar SingleCell_D2D.eNB.ipv4.ip packetDropForwardingDisabled:count 0
scalar SingleCell_D2D.eNB.ipv4.ip packetDropForwardingDisabled:sum(packetBytes) 0
scalar SingleCell_D2D.eNB.ipv4.ip packetDropNoInterfaceFound:count 0
scalar SingleCell_D2D.eNB.ipv4.ip packetDropNoInterfaceFound:sum(packetBytes) 0
scalar SingleCell_D2D.eNB.ipv4.ip packetDropNoRouteFound:count 0
scalar SingleCell_D2D.eNB.ipv4.ip packetDropNoRouteFound:sum(packetBytes) 0
scalar SingleCell_D2D.eNB.ipv4.ip packetDropUndefined:count 0
scalar SingleCell_D2D.eNB.ipv4.ip packetDropUndefined:sum(packetBytes) 0
scalar SingleCell_D2D.eNB.ipv4.arp arpResolutionFailed:count 0
scalar SingleCell_D2D.eNB.ipv4.arp arpResolutionCompleted:count 0
scalar SingleCell_D2D.eNB.ipv4.arp arpResolutionInitiated:count 0
scalar SingleCell_D2D.eNB.ipv4.arp arpReplySent:count 0
scalar SingleCell_D2D.eNB.ipv4.arp arpReplySent:sum(packetBytes) 0
scalar SingleCell_D2D.eNB.ipv4.arp arpRequestSent:count 0
scalar SingleCell_D2D.eNB.ipv4.arp arpRequestSent:sum(packetBytes) 0
scalar SingleCell_D2D.eNB.udp packetReceived:count 0
scalar SingleCell_D2D.eNB.udp packetReceived:sum(packetBytes) 0
scalar SingleCell_D2D.eNB.udp packetSent:count 0
scalar SingleCell_D2D.eNB.udp packetSent:sum(packetBytes) 0
scalar SingleCell_D2D.eNB.udp passedUpPk:count 0
scalar SingleCell_D2D.eNB.udp droppedPkWrongPort:count 0
scalar SingleCell_D2D.eNB.udp droppedPkBadChecksum:count 0
scalar SingleCell_D2D.ueD2DTx[0].lo[0].lo rcvdPkFromHl:count 0
scalar SingleCell_D2D.ueD2DTx[0].lo[0].lo rcvdPkFromHl:sum(packetBytes) 0
scalar SingleCell_D2D.ueD2DTx[0].lo[0].lo passedUpPk:count 0
scalar SingleCell_D2D.ueD2DTx[0].lo[0].lo passedUpPk:sum(packetBytes) 0
scalar SingleCell_D2D.ueD2DTx[0].lo[0] packetDropInterfaceDown:count 0
scalar SingleCell_D2D.ueD2DTx[0].lo[0] packetDropInterfaceDown:sum(packetBytes) 0
scalar SingleCell_D2D.ueD2DTx[0].lo[0] packetDropNoCarrier:count 0
scalar SingleCell_D2D.ueD2DTx[0].lo[0] packetDropNoCarrier:sum(packetBytes) 0
scalar SingleCell_D2D.ueD2DTx[0].cellularNic.pdcp sentPacketToLowerLayer:count 167
scalar SingleCell_D2D.ueD2DTx[0].cellularNic.pdcp sentPacketToLowerLayer:sum(packetBytes) 11523
scalar SingleCell_D2D.ueD2DTx[0].cellularNic.pdcp sentPacketToUpperLayer:count 0
scalar SingleCell_D2D.ueD2DTx[0].cellularNic.pdcp sentPacketToUpperLayer:sum(packetBytes) 0
scalar SingleCell_D2D.ueD2DTx[0].cellularNic.pdcp receivedPacketFromLowerLayer:count 0
scalar SingleCell_D2D.ueD2DTx[0].cellularNic.pdcp receivedPacketFromLowerLayer:sum(packetBytes) 0
scalar SingleCell_D2D.ueD2DTx[0].cellularNic.pdcp receivedPacketFromUpperLayer:count 167
scalar SingleCell_D2D.ueD2DTx[0].cellularNic.pdcp receivedPacketFromUpperLayer:sum(packetBytes) 11356
scalar SingleCell_D2D.ueD2DTx[0].cellularNic.rlc.tm rlcPacketLossUl:mean -nan
scalar SingleCell_D2D.ueD2DTx[0].cellularNic.rlc.tm rlcPacketLossUl:sum 0
scalar SingleCell_D2D.ueD2DTx[0].cellularNic.rlc.tm rlcPacketLossDl:mean -nan
scalar SingleCell_D2D.ueD2DTx[0].cellularNic.rlc.tm rlcPacketLossDl:sum 0
scalar SingleCell_D2D.ueD2DTx[0].cellularNic.rlc.tm sentPacketToLowerLayer:count 0
scalar SingleCell_D2D.ueD2DTx[0].cellularNic.rlc.tm sentPacketToLowerLayer:sum(packetBytes) 0
scalar SingleCell_D2D.ueD2DTx[0].cellularNic.rlc.tm sentPacketToUpperLayer:count 0
scalar SingleCell_D2D.ueD2DTx[0].cellularNic.rlc.tm sentPacketToUpperLayer:sum(packetBytes) 0
scalar SingleCell_D2D.ueD2DTx[0].cellularNic.rlc.tm receivedPacketFromLowerLayer:count 0
scalar SingleCell_D2D.ueD2DTx[0].cellularNic.rlc.tm receivedPacketFromLowerLayer:sum(packetBytes) 0
scalar SingleCell_D2D.ueD2DTx[0].cellularNic.rlc.tm receivedPacketFromUpperLayer:count 0
scalar SingleCell_D2D.ueD2DTx[0].cellularNic.rlc.tm receivedPacketFromUpperLayer:sum(packetBytes) 0
scalar SingleCell_D2D.ueD2DTx[0].cellularNic.rlc.um rlcCellThroughputD2D:simu5g_rateavg -nan
scalar SingleCell_D2D.ueD2DTx[0].cellularNic.rlc.um rlcPduThroughputD2D:simu5g_rateavg -nan
scalar SingleCell_D2D.ueD2DTx[0].cellularNic.rlc.um rlcPduDelayD2D:mean -nan
scalar SingleCell_D2D.ueD2DTx[0].cellularNic.rlc.um rlcThroughputD2D:simu5g_rateavg -nan
scalar SingleCell_D2D.ueD2DTx[0].cellularNic.rlc.um rlcDelayD2D:mean -nan
scalar SingleCell_D2D.ueD2DTx[0].cellularNic.rlc.um rlcCellThroughputUl:simu5g_rateavg -nan
scalar SingleCell_D2D.ueD2DTx[0].cellularNic.rlc.um rlcCellThroughputDl:simu5g_rateavg -nan
scalar SingleCell_D2D.ueD2DTx[0].cellularNic.rlc.um rlcPduThroughputUl:simu5g_rateavg 0
scalar SingleCell_D2D.ueD2DTx[0].cellularNic.rlc.um rlcPduThroughputDl:simu5g_rateavg -nan
scalar SingleCell_D2D.ueD2DTx[0].cellularNic.rlc.um rlcPduDelayUl:mean 0.0040000000000000027
scalar SingleCell_D2D.ueD2DTx[0].cellularNic.rlc.um rlcPduDelayDl:mean -nan
scalar SingleCell_D2D.ueD2DTx[0].cellularNic.rlc.um rlcThroughputUl:simu5g_rateavg 58.739646815361844
scalar SingleCell_D2D.ueD2DTx[0].cellularNic.rlc.um rlcThroughputDl:simu5g_rateavg -nan
scalar SingleCell_D2D.ueD2DTx[0].cellularNic.rlc.um rlcDelayUl:mean 0.0080215389180000023
scalar SingleCell_D2D.ueD2DTx[0].cellularNic.rlc.um rlcDelayDl:mean -nan
scalar SingleCell_D2D.ueD2DTx[0].cellularNic.rlc.um sentPacketToLowerLayer:count 166
scalar SingleCell_D2D.ueD2DTx[0].cellularNic.rlc.um sentPacketToLowerLayer:sum(packetBytes) 11786
scalar SingleCell_D2D.ueD2DTx[0].cellularNic.rlc.um sentPacketToUpperLayer:count 0
scalar SingleCell_D2D.ueD2DTx[0].cellularNic.rlc.um sentPacketToUpperLayer:sum(packetBytes) 0
scalar SingleCell_D2D.ueD2DTx[0].cellularNic.rlc.um receivedPacketFromLowerLayer:count 0
scalar SingleCell_D2D.ueD2DTx[0].cellularNic.rlc.um receivedPacketFromLowerLayer:sum(packetBytes) 0
scalar SingleCell_D2D.ueD2DTx[0].cellularNic.rlc.um receivedPacketFromUpperLayer:count 167
scalar SingleCell_D2D.ueD2DTx[0].cellularNic.rlc.um receivedPacketFromUpperLayer:sum(packetBytes) 11523
scalar SingleCell_D2D.ueD2DTx[0].cellularNic.rlc.am rlcPacketLossTotal:mean -nan
scalar SingleCell_D2D.ueD2DTx[0].cellularNic.rlc.am rlcCellThroughputUl:simu5g_rateavg -nan
scalar SingleCell_D2D.ueD2DTx[0].cellularNic.rlc.am rlcCellThroughputDl:simu5g_rateavg -nan
scalar SingleCell_D2D.ueD2DTx[0].cellularNic.rlc.am rlcPduThroughputUl:simu5g_rateavg -nan
scalar SingleCell_D2D.ueD2DTx[0].cellularNic.rlc.am rlcPduThroughputDl:simu5g_rateavg -nan
scalar SingleCell_D2D.ueD2DTx[0].cellularNic.rlc.am rlcPduDelayUl:mean -nan
scalar SingleCell_D2D.ueD2DTx[0].cellularNic.rlc.am rlcPduDelayDl:mean -nan
scalar SingleCell_D2D.ueD2DTx[0].cellularNic.rlc.am rlcThroughputUl:simu5g_rateavg -nan
scalar SingleCell_D2D.ueD2DTx[0].cellularNic.rlc.am rlcThroughputDl:simu5g_rateavg -nan
scalar SingleCell_D2D.ueD2DTx[0].cellularNic.rlc.am rlcDelayUl:mean -nan
scalar SingleCell_D2D.ueD2DTx[0].cellularNic.rlc.am rlcDelayDl:mean -nan
scalar SingleCell_D2D.ueD2DTx[0].cellularNic.rlc.am rlcPduPacketLossUl:mean -nan
scalar SingleCell_D2D.ueD2DTx[0].cellularNic.rlc.am rlcPduPacketLossDl:mean -nan
scalar SingleCell_D2D.ueD2DTx[0].cellularNic.rlc.am rlcPacketLossUl:mean -nan
scalar SingleCell_D2D.ueD2DTx[0].cellularNic.rlc.am rlcPacketLossDl:mean -nan
scalar SingleCell_D2D.ueD2DTx[0].cellularNic.rlc.am rlcCellPacketLossUl:mean -nan
scalar SingleCell_D2D.ueD2DTx[0].cellularNic.rlc.am rlcCellPacketLossDl:mean -nan
scalar SingleCell_D2D.ueD2DTx[0].cellularNic.mac harqErrorRate_4th_D2D:mean -nan
scalar SingleCell_D2D.ueD2DTx[0].cellularNic.mac harqErrorRate_3rd_D2D:mean -nan
scalar SingleCell_D2D.ueD2DTx[0].cellularNic.mac harqErrorRate_2nd_D2D:mean -nan
scalar SingleCell_D2D.ueD2DTx[0].cellularNic.mac harqErrorRate_1st_D2D:mean -nan
scalar SingleCell_D2D.ueD2DTx[0].cellularNic.mac harqErrorRateD2D:mean -nan
scalar SingleCell_D2D.ueD2DTx[0].cellularNic.mac macPacketLossD2D:mean -nan
scalar SingleCell_D2D.ueD2DTx[0].cellularNic.mac macDelayD2D:mean -nan
scalar SingleCell_D2D.ueD2DTx[0].cellularNic.mac macThroughputD2D:simu5g_rateavg -nan
scalar SingleCell_D2D.ueD2DTx[0].cellularNic.mac harqTxAttemptsUl:mean 1
scalar SingleCell_D2D.ueD2DTx[0].cellularNic.mac harqTxAttemptsDl:mean -nan
scalar SingleCell_D2D.ueD2DTx[0].cellularNic.mac harqErrorRate_4th_Ul:mean -nan
scalar SingleCell_D2D.ueD2DTx[0].cellularNic.mac harqErrorRate_4th_Dl:mean -nan
scalar SingleCell_D2D.ueD2DTx[0].cellularNic.mac harqErrorRate_3rd_Ul:mean -nan
scalar SingleCell_D2D.ueD2DTx[0].cellularNic.mac harqErrorRate_3rd_Dl:mean -nan
scalar SingleCell_D2D.ueD2DTx[0].cellularNic.mac harqErrorRate_2nd_Ul:mean -nan
scalar SingleCell_D2D.ueD2DTx[0].cellularNic.mac harqErrorRate_2nd_Dl:mean -nan
scalar SingleCell_D2D.ueD2DTx[0].cellularNic.mac harqErrorRate_1st_Ul:mean 0
scalar SingleCell_D2D.ueD2DTx[0].cellularNic.mac harqErrorRate_1st_Dl:mean -nan
scalar SingleCell_D2D.ueD2DTx[0].cellularNic.mac harqErrorRateUl:mean 0
scalar SingleCell_D2D.ueD2DTx[0].cellularNic.mac harqErrorRateDl:mean -nan
scalar SingleCell_D2D.ueD2DTx[0].cellularNic.mac macCellPacketLossUl:mean -nan
scalar SingleCell_D2D.ueD2DTx[0].cellularNic.mac macCellPacketLossDl:mean -nan
scalar SingleCell_D2D.ueD2DTx[0].cellularNic.mac macPacketLossUl:mean 0
scalar SingleCell_D2D.ueD2DTx[0].cellularNic.mac macPacketLossDl:mean -nan
scalar SingleCell_D2D.ueD2DTx[0].cellularNic.mac macThroughputUl:simu5g_rateavg 165.37455641145414
scalar SingleCell_D2D.ueD2DTx[0].cellularNic.mac macThroughputDl:simu5g_rateavg -nan
scalar SingleCell_D2D.ueD2DTx[0].cellularNic.mac macDelayUl:mean 0.0040000000000000027
scalar SingleCell_D2D.ueD2DTx[0].cellularNic.mac macDelayDl:mean -nan
scalar SingleCell_D2D.ueD2DTx[0].cellularNic.mac macCellThroughputUl:simu5g_rateavg -nan
scalar SingleCell_D2D.ueD2DTx[0].cellularNic.mac macCellThroughputDl:simu5g_rateavg -nan
scalar SingleCell_D2D.ueD2DTx[0].cellularNic.mac rcvdD2DModeSwitchNotification:count 1
scalar SingleCell_D2D.ueD2DTx[0].cellularNic.mac sentPacketToLowerLayer:count 720
scalar SingleCell_D2D.ueD2DTx[0].cellularNic.mac sentPacketToLowerLayer:sum(packetBytes) 12930
scalar SingleCell_D2D.ueD2DTx[0].cellularNic.mac sentPacketToUpperLayer:count 167
scalar SingleCell_D2D.ueD2DTx[0].cellularNic.mac sentPacketToUpperLayer:sum(packetBytes) 167
scalar SingleCell_D2D.ueD2DTx[0].cellularNic.mac receivedPacketFromLowerLayer:count 1275
scalar SingleCell_D2D.ueD2DTx[0].cellularNic.mac receivedPacketFromLowerLayer:sum(packetBytes) 1275
scalar SingleCell_D2D.ueD2DTx[0].cellularNic.mac receivedPacketFromUpperLayer:count 333
scalar SingleCell_D2D.ueD2DTx[0].cellularNic.mac receivedPacketFromUpperLayer:sum(packetBytes) 23643
scalar SingleCell_D2D.ueD2DTx[0].cellularNic.mac macBufferOverFlowD2D:mean -nan
scalar SingleCell_D2D.ueD2DTx[0].cellularNic.mac macBufferOverFlowUl:mean -nan
scalar SingleCell_D2D.ueD2DTx[0].cellularNic.mac macBufferOverFlowDl:mean -nan
scalar SingleCell_D2D.ueD2DTx[0].cellularNic.phy distance:mean 106.98252357208288
scalar SingleCell_D2D.ueD2DTx[0].cellularNic.phy averageCqiD2D:mean 14.054263565891473
scalar SingleCell_D2D.ueD2DTx[0].cellularNic.phy averageCqiUl:mean 15
scalar SingleCell_D2D.ueD2DTx[0].cellularNic.phy averageCqiUl:count 295
scalar SingleCell_D2D.ueD2DTx[0].cellularNic.phy averageCqiDl:mean -nan
scalar SingleCell_D2D.ueD2DTx[0].cellularNic.phy averageCqiDl:count 0
scalar SingleCell_D2D.ueD2DTx[0].cellularNic.channelModel[0] measuredSinrUl:mean 42.683562462121564
scalar SingleCell_D2D.ueD2DTx[0].cellularNic.channelModel[0] measuredSinrDl:mean 60.683562462121245
scalar SingleCell_D2D.ueD2DTx[0].cellularNic.channelModel[0] rcvdSinrD2D:mean -nan
scalar SingleCell_D2D.ueD2DTx[0].cellularNic.channelModel[0] rcvdSinrUl:mean 39.788991525043059
scalar SingleCell_D2D.ueD2DTx[0].cellularNic.channelModel[0] rcvdSinrDl:mean -nan
scalar SingleCell_D2D.ueD2DTx[0].cellularNic packetDropInterfaceDown:count 0
scalar SingleCell_D2D.ueD2DTx[0].cellularNic packetDropInterfaceDown:sum(packetBytes) 0
scalar SingleCell_D2D.ueD2DTx[0].cellularNic packetDropNoCarrier:count 0
scalar SingleCell_D2D.ueD2DTx[0].cellularNic packetDropNoCarrier:sum(packetBytes) 0
scalar SingleCell_D2D.ueD2DTx[0].encap pauseSent:count 0
scalar SingleCell_D2D.ueD2DTx[0].encap pauseSent:sum 0
scalar SingleCell_D2D.ueD2DTx[0].encap decapPk:count 0
scalar SingleCell_D2D.ueD2DTx[0].encap decapPk:sum(packetBytes) 0
scalar SingleCell_D2D.ueD2DTx[0].encap encapPk:count 0
scalar SingleCell_D2D.ueD2DTx[0].encap encapPk:sum(packetBytes) 0
scalar SingleCell_D2D.ueD2DTx[0].ipv4.ip packetDropAddressResolutionFailed:count 0
scalar SingleCell_D2D.ueD2DTx[0].ipv4.ip packetDropAddressResolutionFailed:sum(packetBytes) 0
scalar SingleCell_D2D.ueD2DTx[0].ipv4.ip packetDropHopLimitReached:count 0
scalar SingleCell_D2D.ueD2DTx[0].ipv4.ip packetDropHopLimitReached:sum(packetBytes) 0
scalar SingleCell_D2D.ueD2DTx[0].ipv4.ip packetDropForwardingDisabled:count 0
scalar SingleCell_D2D.ueD2DTx[0].ipv4.ip packetDropForwardingDisabled:sum(packetBytes) 0
scalar SingleCell_D2D.ueD2DTx[0].ipv4.ip packetDropNoInterfaceFound:count 0
scalar SingleCell_D2D.ueD2DTx[0].ipv4.ip packetDropNoInterfaceFound:sum(packetBytes) 0
scalar SingleCell_D2D.ueD2DTx[0].ipv4.ip packetDropNoRouteFound:count 0
scalar SingleCell_D2D.ueD2DTx[0].ipv4.ip packetDropNoRouteFound:sum(packetBytes) 0
scalar SingleCell_D2D.ueD2DTx[0].ipv4.ip packetDropUndefined:count 0
scalar SingleCell_D2D.ueD2DTx[0].ipv4.ip packetDropUndefined:sum(packetBytes) 0
scalar SingleCell_D2D.ueD2DTx[0].ipv4.arp arpResolutionFailed:count 0
scalar SingleCell_D2D.ueD2DTx[0].ipv4.arp arpResolutionCompleted:count 0
scalar SingleCell_D2D.ueD2DTx[0].ipv4.arp arpResolutionInitiated:count 0
scalar SingleCell_D2D.ueD2DTx[0].ipv4.arp arpReplySent:count 0
scalar SingleCell_D2D.ueD2DTx[0].ipv4.arp arpReplySent:sum(packetBytes) 0
scalar SingleCell_D2D.ueD2DTx[0].ipv4.arp arpRequestSent:count 0
scalar SingleCell_D2D.ueD2DTx[0].ipv4.arp arpRequestSent:sum(packetBytes) 0
scalar SingleCell_D2D.ueD2DTx[0].udp packetReceived:count 0
scalar SingleCell_D2D.ueD2DTx[0].udp packetReceived:sum(packetBytes) 0
scalar SingleCell_D2D.ueD2DTx[0].udp packetSent:count 167
scalar SingleCell_D2D.ueD2DTx[0].udp packetSent:sum(packetBytes) 8016
scalar SingleCell_D2D.ueD2DTx[0].udp passedUpPk:count 0
scalar SingleCell_D2D.ueD2DTx[0].udp droppedPkWrongPort:count 0
scalar SingleCell_D2D.ueD2DTx[0].udp droppedPkBadChecksum:count 0
scalar SingleCell_D2D.ueD2DTx[0].app[0] voipGeneratedThroughput:simu5g_rateavg 1249.7475192253075
scalar SingleCell_D2D.ueD2DRx[0].lo[0].lo rcvdPkFromHl:count 0
scalar SingleCell_D2D.ueD2DRx[0].lo[0].lo rcvdPkFromHl:sum(packetBytes) 0
scalar SingleCell_D2D.ueD2DRx[0].lo[0].lo passedUpPk:count 0
scalar SingleCell_D2D.ueD2DRx[0].lo[0].lo passedUpPk:sum(packetBytes) 0
scalar SingleCell_D2D.ueD2DRx[0].lo[0] packetDropInterfaceDown:count 0
scalar SingleCell_D2D.ueD2DRx[0].lo[0] packetDropInterfaceDown:sum(packetBytes) 0
scalar SingleCell_D2D.ueD2DRx[0].lo[0] packetDropNoCarrier:count 0
scalar SingleCell_D2D.ueD2DRx[0].lo[0] packetDropNoCarrier:sum(packetBytes) 0
scalar SingleCell_D2D.ueD2DRx[0].cellularNic.pdcp sentPacketToLowerLayer:count 0
scalar SingleCell_D2D.ueD2DRx[0].cellularNic.pdcp sentPacketToLowerLayer:sum(packetBytes) 0
scalar SingleCell_D2D.ueD2DRx[0].cellularNic.pdcp sentPacketToUpperLayer:count 166
scalar SingleCell_D2D.ueD2DRx[0].cellularNic.pdcp sentPacketToUpperLayer:sum(packetBytes) 11288
scalar SingleCell_D2D.ueD2DRx[0].cellularNic.pdcp receivedPacketFromLowerLayer:count 166
scalar SingleCell_D2D.ueD2DRx[0].cellularNic.pdcp receivedPacketFromLowerLayer:sum(packetBytes) 11454
scalar SingleCell_D2D.ueD2DRx[0].cellularNic.pdcp receivedPacketFromUpperLayer:count 0
scalar SingleCell_D2D.ueD2DRx[0].cellularNic.pdcp receivedPacketFromUpperLayer:sum(packetBytes) 0
scalar SingleCell_D2D.ueD2DRx[0].cellularNic.rlc.tm rlcPacketLossUl:mean -nan
scalar SingleCell_D2D.ueD2DRx[0].cellularNic.rlc.tm rlcPacketLossUl:sum 0
scalar SingleCell_D2D.ueD2DRx[0].cellularNic.rlc.tm rlcPacketLossDl:mean -nan
scalar SingleCell_D2D.ueD2DRx[0].cellularNic.rlc.tm rlcPacketLossDl:sum 0
scalar SingleCell_D2D.ueD2DRx[0].cellularNic.rlc.tm sentPacketToLowerLayer:count 0
scalar SingleCell_D2D.ueD2DRx[0].cellularNic.rlc.tm sentPacketToLowerLayer:sum(packetBytes) 0
scalar SingleCell_D2D.ueD2DRx[0].cellularNic.rlc.tm sentPacketToUpperLayer:count 0
scalar SingleCell_D2D.ueD2DRx[0].cellularNic.rlc.tm sentPacketToUpperLayer:sum(packetBytes) 0
scalar SingleCell_D2D.ueD2DRx[0].cellularNic.rlc.tm receivedPacketFromLowerLayer:count 0
scalar SingleCell_D2D.ueD2DRx[0].cellularNic.rlc.tm receivedPacketFromLowerLayer:sum(packetBytes) 0
scalar SingleCell_D2D.ueD2DRx[0].cellularNic.rlc.tm receivedPacketFromUpperLayer:count 0
scalar SingleCell_D2D.ueD2DRx[0].cellularNic.rlc.tm receivedPacketFromUpperLayer:sum(packetBytes) 0
scalar SingleCell_D2D.ueD2DRx[0].cellularNic.rlc.um rlcCellThroughputD2D:simu5g_rateavg -nan
scalar SingleCell_D2D.ueD2DRx[0].cellularNic.rlc.um rlcPduThroughputD2D:simu5g_rateavg 0
scalar SingleCell_D2D.ueD2DRx[0].cellularNic.rlc.um rlcPduDelayD2D:mean 0.0040000000000000027
scalar SingleCell_D2D.ueD2DRx[0].cellularNic.rlc.um rlcThroughputD2D:simu5g_rateavg 2065.9114950115491
scalar SingleCell_D2D.ueD2DRx[0].cellularNic.rlc.um rlcDelayD2D:mean 0.014183842643457385
scalar SingleCell_D2D.ueD2DRx[0].cellularNic.rlc.um rlcCellThroughputUl:simu5g_rateavg -nan
scalar SingleCell_D2D.ueD2DRx[0].cellularNic.rlc.um rlcCellThroughputDl:simu5g_rateavg -nan
scalar SingleCell_D2D.ueD2DRx[0].cellularNic.rlc.um rlcPduThroughputUl:simu5g_rateavg -nan
scalar SingleCell_D2D.ueD2DRx[0].cellularNic.rlc.um rlcPduThroughputDl:simu5g_rateavg 0
scalar SingleCell_D2D.ueD2DRx[0].cellularNic.rlc.um rlcPduDelayUl:mean -nan
scalar SingleCell_D2D.ueD2DRx[0].cellularNic.rlc.um rlcPduDelayDl:mean 0.0040000000000000027
scalar SingleCell_D2D.ueD2DRx[0].cellularNic.rlc.um rlcThroughputUl:simu5g_rateavg -nan
scalar SingleCell_D2D.ueD2DRx[0].cellularNic.rlc.um rlcThroughputDl:simu5g_rateavg 58.629799156782965
scalar SingleCell_D2D.ueD2DRx[0].cellularNic.rlc.um rlcDelayUl:mean -nan
scalar SingleCell_D2D.ueD2DRx[0].cellularNic.rlc.um rlcDelayDl:mean 0.013021538918000005
scalar SingleCell_D2D.ueD2DRx[0].cellularNic.rlc.um sentPacketToLowerLayer:count 0
scalar SingleCell_D2D.ueD2DRx[0].cellularNic.rlc.um sentPacketToLowerLayer:sum(packetBytes) 0
scalar SingleCell_D2D.ueD2DRx[0].cellularNic.rlc.um sentPacketToUpperLayer:count 166
scalar SingleCell_D2D.ueD2DRx[0].cellularNic.rlc.um sentPacketToUpperLayer:sum(packetBytes) 11454
scalar SingleCell_D2D.ueD2DRx[0].cellularNic.rlc.um receivedPacketFromLowerLayer:count 166
scalar SingleCell_D2D.ueD2DRx[0].cellularNic.rlc.um receivedPacketFromLowerLayer:sum(packetBytes) 11786
scalar SingleCell_D2D.ueD2DRx[0].cellularNic.rlc.um receivedPacketFromUpperLayer:count 0
scalar SingleCell_D2D.ueD2DRx[0].cellularNic.rlc.um receivedPacketFromUpperLayer:sum(packetBytes) 0
scalar SingleCell_D2D.ueD2DRx[0].cellularNic.rlc.am rlcPacketLossTotal:mean -nan
scalar SingleCell_D2D.ueD2DRx[0].cellularNic.rlc.am rlcCellThroughputUl:simu5g_rateavg -nan
scalar SingleCell_D2D.ueD2DRx[0].cellularNic.rlc.am rlcCellThroughputDl:simu5g_rateavg -nan
scalar SingleCell_D2D.ueD2DRx[0].cellularNic.rlc.am rlcPduThroughputUl:simu5g_rateavg -nan
scalar SingleCell_D2D.ueD2DRx[0].cellularNic.rlc.am rlcPduThroughputDl:simu5g_rateavg -nan
scalar SingleCell_D2D.ueD2DRx[0].cellularNic.rlc.am rlcPduDelayUl:mean -nan
scalar SingleCell_D2D.ueD2DRx[0].cellularNic.rlc.am rlcPduDelayDl:mean -nan
scalar SingleCell_D2D.ueD2DRx[0].cellularNic.rlc.am rlcThroughputUl:simu5g_rateavg -nan
scalar SingleCell_D2D.ueD2DRx[0].cellularNic.rlc.am rlcThroughputDl:simu5g_rateavg -nan
scalar SingleCell_D2D.ueD2DRx[0].cellularNic.rlc.am rlcDelayUl:mean -nan
scalar SingleCell_D2D.ueD2DRx[0].cellularNic.rlc.am rlcDelayDl:mean -nan
scalar SingleCell_D2D.ueD2DRx[0].cellularNic.rlc.am rlcPduPacketLossUl:mean -nan
scalar SingleCell_D2D.ueD2DRx[0].cellularNic.rlc.am rlcPduPacketLossDl:mean -nan
scalar SingleCell_D2D.ueD2DRx[0].cellularNic.rlc.am rlcPacketLossUl:mean -nan
scalar SingleCell_D2D.ueD2DRx[0].cellularNic.rlc.am rlcPacketLossDl:mean -nan
scalar SingleCell_D2D.ueD2DRx[0].cellularNic.rlc.am rlcCellPacketLossUl:mean -nan
scalar SingleCell_D2D.ueD2DRx[0].cellularNic.rlc.am rlcCellPacketLossDl:mean -nan
scalar SingleCell_D2D.ueD2DRx[0].cellularNic.mac harqErrorRate_4th_D2D:mean -nan
scalar SingleCell_D2D.ueD2DRx[0].cellularNic.mac harqErrorRate_3rd_D2D:mean -nan
scalar SingleCell_D2D.ueD2DRx[0].cellularNic.mac harqErrorRate_2nd_D2D:mean -nan
scalar SingleCell_D2D.ueD2DRx[0].cellularNic.mac harqErrorRate_1st_D2D:mean 0
scalar SingleCell_D2D.ueD2DRx[0].cellularNic.mac harqErrorRateD2D:mean 0
scalar SingleCell_D2D.ueD2DRx[0].cellularNic.mac macPacketLossD2D:mean 0
scalar SingleCell_D2D.ueD2DRx[0].cellularNic.mac macDelayD2D:mean 0.0040000000000000027
scalar SingleCell_D2D.ueD2DRx[0].cellularNic.mac macThroughputD2D:simu5g_rateavg 2185.6744802296121
scalar SingleCell_D2D.ueD2DRx[0].cellularNic.mac harqTxAttemptsUl:mean -nan
scalar SingleCell_D2D.ueD2DRx[0].cellularNic.mac harqTxAttemptsDl:mean 1
scalar SingleCell_D2D.ueD2DRx[0].cellularNic.mac harqErrorRate_4th_Ul:mean -nan
scalar SingleCell_D2D.ueD2DRx[0].cellularNic.mac harqErrorRate_4th_Dl:mean -nan
scalar SingleCell_D2D.ueD2DRx[0].cellularNic.mac harqErrorRate_3rd_Ul:mean -nan
scalar SingleCell_D2D.ueD2DRx[0].cellularNic.mac harqErrorRate_3rd_Dl:mean -nan
scalar SingleCell_D2D.ueD2DRx[0].cellularNic.mac harqErrorRate_2nd_Ul:mean -nan
scalar SingleCell_D2D.ueD2DRx[0].cellularNic.mac harqErrorRate_2nd_Dl:mean -nan
scalar SingleCell_D2D.ueD2DRx[0].cellularNic.mac harqErrorRate_1st_Ul:mean -nan
scalar SingleCell_D2D.ueD2DRx[0].cellularNic.mac harqErrorRate_1st_Dl:mean 0
scalar SingleCell_D2D.ueD2DRx[0].cellularNic.mac harqErrorRateUl:mean -nan
scalar SingleCell_D2D.ueD2DRx[0].cellularNic.mac harqErrorRateDl:mean 0
scalar SingleCell_D2D.ueD2DRx[0].cellularNic.mac macCellPacketLossUl:mean -nan
scalar SingleCell_D2D.ueD2DRx[0].cellularNic.mac macCellPacketLossDl:mean -nan
scalar SingleCell_D2D.ueD2DRx[0].cellularNic.mac macPacketLossUl:mean -nan
scalar SingleCell_D2D.ueD2DRx[0].cellularNic.mac macPacketLossDl:mean 0
scalar SingleCell_D2D.ueD2DRx[0].cellularNic.mac macThroughputUl:simu5g_rateavg -nan
scalar SingleCell_D2D.ueD2DRx[0].cellularNic.mac macThroughputDl:simu5g_rateavg 62.028628093408045
scalar SingleCell_D2D.ueD2DRx[0].cellularNic.mac macDelayUl:mean -nan
scalar SingleCell_D2D.ueD2DRx[0].cellularNic.mac macDelayDl:mean 0.0040000000000000027
scalar SingleCell_D2D.ueD2DRx[0].cellularNic.mac macCellThroughputUl:simu5g_rateavg -nan
scalar SingleCell_D2D.ueD2DRx[0].cellularNic.mac macCellThroughputDl:simu5g_rateavg -nan
scalar SingleCell_D2D.ueD2DRx[0].cellularNic.mac rcvdD2DModeSwitchNotification:count 0
scalar SingleCell_D2D.ueD2DRx[0].cellularNic.mac sentPacketToLowerLayer:count 295
scalar SingleCell_D2D.ueD2DRx[0].cellularNic.mac sentPacketToLowerLayer:sum(packetBytes) 295
scalar SingleCell_D2D.ueD2DRx[0].cellularNic.mac sentPacketToUpperLayer:count 167
scalar SingleCell_D2D.ueD2DRx[0].cellularNic.mac sentPacketToUpperLayer:sum(packetBytes) 11787
scalar SingleCell_D2D.ueD2DRx[0].cellularNic.mac receivedPacketFromLowerLayer:count 167
scalar SingleCell_D2D.ueD2DRx[0].cellularNic.mac receivedPacketFromLowerLayer:sum(packetBytes) 12119
scalar SingleCell_D2D.ueD2DRx[0].cellularNic.mac receivedPacketFromUpperLayer:count 0
scalar SingleCell_D2D.ueD2DRx[0].cellularNic.mac receivedPacketFromUpperLayer:sum(packetBytes) 0
scalar SingleCell_D2D.ueD2DRx[0].cellularNic.mac macBufferOverFlowD2D:mean -nan
scalar SingleCell_D2D.ueD2DRx[0].cellularNic.mac macBufferOverFlowUl:mean -nan
scalar SingleCell_D2D.ueD2DRx[0].cellularNic.mac macBufferOverFlowDl:mean -nan
scalar SingleCell_D2D.ueD2DRx[0].cellularNic.phy distance:mean 106.98252357208288
scalar SingleCell_D2D.ueD2DRx[0].cellularNic.phy averageCqiD2D:mean -nan
scalar SingleCell_D2D.ueD2DRx[0].cellularNic.phy averageCqiUl:mean -nan
scalar SingleCell_D2D.ueD2DRx[0].cellularNic.phy averageCqiUl:count 0
scalar SingleCell_D2D.ueD2DRx[0].cellularNic.phy averageCqiDl:mean 15
scalar SingleCell_D2D.ueD2DRx[0].cellularNic.phy averageCqiDl:count 37
scalar SingleCell_D2D.ueD2DRx[0].cellularNic.channelModel[0] measuredSinrUl:mean 42.683562462121564
scalar SingleCell_D2D.ueD2DRx[0].cellularNic.channelModel[0] measuredSinrDl:mean 60.683562462121245
scalar SingleCell_D2D.ueD2DRx[0].cellularNic.channelModel[0] rcvdSinrD2D:mean -nan
scalar SingleCell_D2D.ueD2DRx[0].cellularNic.channelModel[0] rcvdSinrUl:mean -nan
scalar SingleCell_D2D.ueD2DRx[0].cellularNic.channelModel[0] rcvdSinrDl:mean 59.588458576231389
scalar SingleCell_D2D.ueD2DRx[0].cellularNic packetDropInterfaceDown:count 0
scalar SingleCell_D2D.ueD2DRx[0].cellularNic packetDropInterfaceDown:sum(packetBytes) 0
scalar SingleCell_D2D.ueD2DRx[0].cellularNic packetDropNoCarrier:count 0
scalar SingleCell_D2D.ueD2DRx[0].cellularNic packetDropNoCarrier:sum(packetBytes) 0
scalar SingleCell_D2D.ueD2DRx[0].encap pauseSent:count 0
scalar SingleCell_D2D.ueD2DRx[0].encap pauseSent:sum 0
scalar SingleCell_D2D.ueD2DRx[0].encap decapPk:count 0
scalar SingleCell_D2D.ueD2DRx[0].encap decapPk:sum(packetBytes) 0
scalar SingleCell_D2D.ueD2DRx[0].encap encapPk:count 0
scalar SingleCell_D2D.ueD2DRx[0].encap encapPk:sum(packetBytes) 0
scalar SingleCell_D2D.ueD2DRx[0].ipv4.ip packetDropAddressResolutionFailed:count 0
scalar SingleCell_D2D.ueD2DRx[0].ipv4.ip packetDropAddressResolutionFailed:sum(packetBytes) 0
scalar SingleCell_D2D.ueD2DRx[0].ipv4.ip packetDropHopLimitReached:count 0
scalar SingleCell_D2D.ueD2DRx[0].ipv4.ip packetDropHopLimitReached:sum(packetBytes) 0
scalar SingleCell_D2D.ueD2DRx[0].ipv4.ip packetDropForwardingDisabled:count 0
scalar SingleCell_D2D.ueD2DRx[0].ipv4.ip packetDropForwardingDisabled:sum(packetBytes) 0
scalar SingleCell_D2D.ueD2DRx[0].ipv4.ip packetDropNoInterfaceFound:count 0
scalar SingleCell_D2D.ueD2DRx[0].ipv4.ip packetDropNoInterfaceFound:sum(packetBytes) 0
scalar SingleCell_D2D.ueD2DRx[0].ipv4.ip packetDropNoRouteFound:count 0
scalar SingleCell_D2D.ueD2DRx[0].ipv4.ip packetDropNoRouteFound:sum(packetBytes) 0
scalar SingleCell_D2D.ueD2DRx[0].ipv4.ip packetDropUndefined:count 0
scalar SingleCell_D2D.ueD2DRx[0].ipv4.ip packetDropUndefined:sum(packetBytes) 0
scalar SingleCell_D2D.ueD2DRx[0].ipv4.arp arpResolutionFailed:count 0
scalar SingleCell_D2D.ueD2DRx[0].ipv4.arp arpResolutionCompleted:count 0
scalar SingleCell_D2D.ueD2DRx[0].ipv4.arp arpResolutionInitiated:count 0
scalar SingleCell_D2D.ueD2DRx[0].ipv4.arp arpReplySent:count 0
scalar SingleCell_D2D.ueD2DRx[0].ipv4.arp arpReplySent:sum(packetBytes) 0
scalar SingleCell_D2D.ueD2DRx[0].ipv4.arp arpRequestSent:count 0
scalar SingleCell_D2D.ueD2DRx[0].ipv4.arp arpRequestSent:sum(packetBytes) 0
scalar SingleCell_D2D.ueD2DRx[0].udp packetReceived:count 166
scalar SingleCell_D2D.ueD2DRx[0].udp packetReceived:sum(packetBytes) 7968
scalar SingleCell_D2D.ueD2DRx[0].udp packetSent:count 0
scalar SingleCell_D2D.ueD2DRx[0].udp packetSent:sum(packetBytes) 0
scalar SingleCell_D2D.ueD2DRx[0].udp passedUpPk:count 166
scalar SingleCell_D2D.ueD2DRx[0].udp droppedPkWrongPort:count 0
scalar SingleCell_D2D.ueD2DRx[0].udp droppedPkBadChecksum:count 0
scalar SingleCell_D2D.ueD2DRx[0].app[0] voipReceivedThroughput:simu5g_rateavg 1218.4608708531914
scalar SingleCell_D2D.ueD2DRx[0].app[0] voipPlayoutLoss:mean 0
scalar SingleCell_D2D.ueD2DRx[0].app[0] voipJitter:mean -nan
scalar SingleCell_D2D.ueD2DRx[0].app[0] voipTaildropLoss:mean 0
scalar SingleCell_D2D.ueD2DRx[0].app[0] voipMos:mean 4.3535677376007813
scalar SingleCell_D2D.ueD2DRx[0].app[0] voipFrameDelay:mean 0.013924774945614496
scalar SingleCell_D2D.ueD2DRx[0].app[0] voipFrameLoss:mean 0.0027100271002710031
scalar SingleCell_D2D.ueD2DRx[0].app[0] voipPlayoutDelay:mean 0
scalar SingleCell_D2D.server.ppp[0].queue queueingTime:histogram:count 0
scalar SingleCell_D2D.server.ppp[0].queue queueingTime:histogram:sumweights 0
scalar SingleCell_D2D.server.ppp[0].queue queueingTime:histogram:mean -nan
scalar SingleCell_D2D.server.ppp[0].queue queueingTime:histogram:stddev nan
scalar SingleCell_D2D.server.ppp[0].queue queueingTime:histogram:min nan
scalar SingleCell_D2D.server.ppp[0].queue queueingTime:histogram:max nan
scalar SingleCell_D2D.server.ppp[0].queue queueingTime:histogram:numbins 1
scalar SingleCell_D2D.server.ppp[0].queue queueingTime:histogram:rangemin 0
scalar SingleCell_D2D.server.ppp[0].queue queueingTime:histogram:rangemax 1
scalar SingleCell_D2D.server.ppp[0].queue queueingTime:histogram:underflows 0
scalar SingleCell_D2D.server.ppp[0].queue queueingTime:histogram:overflows 0
scalar SingleCell_D2D.server.ppp[0].queue outgoingPacketLengths:histogram:count 0
scalar SingleCell_D2D.server.ppp[0].queue outgoingPacketLengths:histogram:sumweights 0
scalar SingleCell_D2D.server.ppp[0].queue outgoingPacketLengths:histogram:mean -nan
scalar SingleCell_D2D.server.ppp[0].queue outgoingPacketLengths:histogram:stddev nan
scalar SingleCell_D2D.server.ppp[0].queue outgoingPacketLengths:histogram:min nan
scalar SingleCell_D2D.server.ppp[0].queue outgoingPacketLengths:histogram:max nan
scalar SingleCell_D2D.server.ppp[0].queue outgoingPacketLengths:histogram:numbins 1
scalar SingleCell_D2D.server.ppp[0].queue outgoingPacketLengths:histogram:rangemin 0
scalar SingleCell_D2D.server.ppp[0].queue outgoingPacketLengths:histogram:rangemax 1
scalar SingleCell_D2D.server.ppp[0].queue outgoingPacketLengths:histogram:underflows 0
scalar SingleCell_D2D.server.ppp[0].queue outgoingPacketLengths:histogram:overflows 0
scalar SingleCell_D2D.server.ppp[0].queue flowQueueingTime:histogram:count 0
scalar SingleCell_D2D.server.ppp[0].queue flowQueueingTime:histogram:sumweights 0
scalar SingleCell_D2D.server.ppp[0].queue flowQueueingTime:histogram:mean -nan
scalar SingleCell_D2D.server.ppp[0].queue flowQueueingTime:histogram:stddev nan
scalar SingleCell_D2D.server.ppp[0].queue flowQueueingTime:histogram:min nan
scalar SingleCell_D2D.server.ppp[0].queue flowQueueingTime:histogram:max nan
scalar SingleCell_D2D.server.ppp[0].queue flowQueueingTime:histogram:numbins 1
scalar SingleCell_D2D.server.ppp[0].queue flowQueueingTime:histogram:rangemin 0
scalar SingleCell_D2D.server.ppp[0].queue flowQueueingTime:histogram:rangemax 1
scalar SingleCell_D2D.server.ppp[0].queue flowQueueingTime:histogram:underflows 0
scalar SingleCell_D2D.server.ppp[0].queue flowQueueingTime:histogram:overflows 0
scalar SingleCell_D2D.server.ppp[0].queue incomingPacketLengths:histogram:count 0
scalar SingleCell_D2D.server.ppp[0].queue incomingPacketLengths:histogram:sumweights 0
scalar SingleCell_D2D.server.ppp[0].queue incomingPacketLengths:histogram:mean -nan
scalar SingleCell_D2D.server.ppp[0].queue incomingPacketLengths:histogram:stddev nan
scalar SingleCell_D2D.server.ppp[0].queue incomingPacketLengths:histogram:min nan
scalar SingleCell_D2D.server.ppp[0].queue incomingPacketLengths:histogram:max nan
scalar SingleCell_D2D.server.ppp[0].queue incomingPacketLengths:histogram:numbins 1
scalar SingleCell_D2D.server.ppp[0].queue incomingPacketLengths:histogram:rangemin 0
scalar SingleCell_D2D.server.ppp[0].queue incomingPacketLengths:histogram:rangemax 1
scalar SingleCell_D2D.server.ppp[0].queue incomingPacketLengths:histogram:underflows 0
scalar SingleCell_D2D.server.ppp[0].queue incomingPacketLengths:histogram:overflows 0
scalar SingleCell_D2D.router.ppp[0].queue queueingTime:histogram:count 0
scalar SingleCell_D2D.router.ppp[0].queue queueingTime:histogram:sumweights 0
scalar SingleCell_D2D.router.ppp[0].queue queueingTime:histogram:mean -nan
scalar SingleCell_D2D.router.ppp[0].queue queueingTime:histogram:stddev nan
scalar SingleCell_D2D.router.ppp[0].queue queueingTime:histogram:min nan
scalar SingleCell_D2D.router.ppp[0].queue queueingTime:histogram:max nan
scalar SingleCell_D2D.router.ppp[0].queue queueingTime:histogram:numbins 1
scalar SingleCell_D2D.router.ppp[0].queue queueingTime:histogram:rangemin 0
scalar SingleCell_D2D.router.ppp[0].queue queueingTime:histogram:rangemax 1
scalar SingleCell_D2D.router.ppp[0].queue queueingTime:histogram:underflows 0
scalar SingleCell_D2D.router.ppp[0].queue queueingTime:histogram:overflows 0
scalar SingleCell_D2D.router.ppp[0].queue outgoingPacketLengths:histogram:count 0
scalar SingleCell_D2D.router.ppp[0].queue outgoingPacketLengths:histogram:sumweights 0
scalar SingleCell_D2D.router.ppp[0].queue outgoingPacketLengths:histogram:mean -nan
scalar SingleCell_D2D.router.ppp[0].queue outgoingPacketLengths:histogram:stddev nan
scalar SingleCell_D2D.router.ppp[0].queue outgoingPacketLengths:histogram:min nan
scalar SingleCell_D2D.router.ppp[0].queue outgoingPacketLengths:histogram:max nan
scalar SingleCell_D2D.router.ppp[0].queue outgoingPacketLengths:histogram:numbins 1
scalar SingleCell_D2D.router.ppp[0].queue outgoingPacketLengths:histogram:rangemin 0
scalar SingleCell_D2D.router.ppp[0].queue outgoingPacketLengths:histogram:rangemax 1
scalar SingleCell_D2D.router.ppp[0].queue outgoingPacketLengths:histogram:underflows 0
scalar SingleCell_D2D.router.ppp[0].queue outgoingPacketLengths:histogram:overflows 0
scalar SingleCell_D2D.router.ppp[0].queue flowQueueingTime:histogram:count 0
scalar SingleCell_D2D.router.ppp[0].queue flowQueueingTime:histogram:sumweights 0
scalar SingleCell_D2D.router.ppp[0].queue flowQueueingTime:histogram:mean -nan
scalar SingleCell_D2D.router.ppp[0].queue flowQueueingTime:histogram:stddev nan
scalar SingleCell_D2D.router.ppp[0].queue flowQueueingTime:histogram:min nan
scalar SingleCell_D2D.router.ppp[0].queue flowQueueingTime:histogram:max nan
scalar SingleCell_D2D.router.ppp[0].queue flowQueueingTime:histogram:numbins 1
scalar SingleCell_D2D.router.ppp[0].queue flowQueueingTime:histogram:rangemin 0
scalar SingleCell_D2D.router.ppp[0].queue flowQueueingTime:histogram:rangemax 1
scalar SingleCell_D2D.router.ppp[0].queue flowQueueingTime:histogram:underflows 0
scalar SingleCell_D2D.router.ppp[0].queue flowQueueingTime:histogram:overflows 0
scalar SingleCell_D2D.router.ppp[0].queue incomingPacketLengths:histogram:count 0
scalar SingleCell_D2D.router.ppp[0].queue incomingPacketLengths:histogram:sumweights 0
scalar SingleCell_D2D.router.ppp[0].queue incomingPacketLengths:histogram:mean -nan
scalar SingleCell_D2D.router.ppp[0].queue incomingPacketLengths:histogram:stddev nan
scalar SingleCell_D2D.router.ppp[0].queue incomingPacketLengths:histogram:min nan
scalar SingleCell_D2D.router.ppp[0].queue incomingPacketLengths:histogram:max nan
scalar SingleCell_D2D.router.ppp[0].queue incomingPacketLengths:histogram:numbins 1
scalar SingleCell_D2D.router.ppp[0].queue incomingPacketLengths:histogram:rangemin 0
scalar SingleCell_D2D.router.ppp[0].queue incomingPacketLengths:histogram:rangemax 1
scalar SingleCell_D2D.router.ppp[0].queue incomingPacketLengths:histogram:underflows 0
scalar SingleCell_D2D.router.ppp[0].queue incomingPacketLengths:histogram:overflows 0
scalar SingleCell_D2D.router.ppp[1].queue queueingTime:histogram:count 0
scalar SingleCell_D2D.router.ppp[1].queue queueingTime:histogram:sumweights 0
scalar SingleCell_D2D.router.ppp[1].queue queueingTime:histogram:mean -nan
scalar SingleCell_D2D.router.ppp[1].queue queueingTime:histogram:stddev nan
scalar SingleCell_D2D.router.ppp[1].queue queueingTime:histogram:min nan
scalar SingleCell_D2D.router.ppp[1].queue queueingTime:histogram:max nan
scalar SingleCell_D2D.router.ppp[1].queue queueingTime:histogram:numbins 1
scalar SingleCell_D2D.router.ppp[1].queue queueingTime:histogram:rangemin 0
scalar SingleCell_D2D.router.ppp[1].queue queueingTime:histogram:rangemax 1
scalar SingleCell_D2D.router.ppp[1].queue queueingTime:histogram:underflows 0
scalar SingleCell_D2D.router.ppp[1].queue queueingTime:histogram:overflows 0
scalar SingleCell_D2D.router.ppp[1].queue outgoingPacketLengths:histogram:count 0
scalar SingleCell_D2D.router.ppp[1].queue outgoingPacketLengths:histogram:sumweights 0
scalar SingleCell_D2D.router.ppp[1].queue outgoingPacketLengths:histogram:mean -nan
scalar SingleCell_D2D.router.ppp[1].queue outgoingPacketLengths:histogram:stddev nan
scalar SingleCell_D2D.router.ppp[1].queue outgoingPacketLengths:histogram:min nan
scalar SingleCell_D2D.router.ppp[1].queue outgoingPacketLengths:histogram:max nan
scalar SingleCell_D2D.router.ppp[1].queue outgoingPacketLengths:histogram:numbins 1
scalar SingleCell_D2D.router.ppp[1].queue outgoingPacketLengths:histogram:rangemin 0
scalar SingleCell_D2D.router.ppp[1].queue outgoingPacketLengths:histogram:rangemax 1
scalar SingleCell_D2D.router.ppp[1].queue outgoingPacketLengths:histogram:underflows 0
scalar SingleCell_D2D.router.ppp[1].queue outgoingPacketLengths:histogram:overflows 0
scalar SingleCell_D2D.router.ppp[1].queue flowQueueingTime:histogram:count 0
scalar SingleCell_D2D.router.ppp[1].queue flowQueueingTime:histogram:sumweights 0
scalar SingleCell_D2D.router.ppp[1].queue flowQueueingTime:histogram:mean -nan
scalar SingleCell_D2D.router.ppp[1].queue flowQueueingTime:histogram:stddev nan
scalar SingleCell_D2D.router.ppp[1].queue flowQueueingTime:histogram:min nan
scalar SingleCell_D2D.router.ppp[1].queue flowQueueingTime:histogram:max nan
scalar SingleCell_D2D.router.ppp[1].queue flowQueueingTime:histogram:numbins 1
scalar SingleCell_D2D.router.ppp[1].queue flowQueueingTime:histogram:rangemin 0
scalar SingleCell_D2D.router.ppp[1].queue flowQueueingTime:histogram:rangemax 1
scalar SingleCell_D2D.router.ppp[1].queue flowQueueingTime:histogram:underflows 0
scalar SingleCell_D2D.router.ppp[1].queue flowQueueingTime:histogram:overflows 0
scalar SingleCell_D2D.router.ppp[1].queue incomingPacketLengths:histogram:count 0
scalar SingleCell_D2D.router.ppp[1].queue incomingPacketLengths:histogram:sumweights 0
scalar SingleCell_D2D.router.ppp[1].queue incomingPacketLengths:histogram:mean -nan
scalar SingleCell_D2D.router.ppp[1].queue incomingPacketLengths:histogram:stddev nan
scalar SingleCell_D2D.router.ppp[1].queue incomingPacketLengths:histogram:min nan
scalar SingleCell_D2D.router.ppp[1].queue incomingPacketLengths:histogram:max nan
scalar SingleCell_D2D.router.ppp[1].queue incomingPacketLengths:histogram:numbins 1
scalar SingleCell_D2D.router.ppp[1].queue incomingPacketLengths:histogram:rangemin 0
scalar SingleCell_D2D.router.ppp[1].queue incomingPacketLengths:histogram:rangemax 1
scalar SingleCell_D2D.router.ppp[1].queue incomingPacketLengths:histogram:underflows 0
scalar SingleCell_D2D.router.ppp[1].queue incomingPacketLengths:histogram:overflows 0
scalar SingleCell_D2D.pgw.ppp[0].queue queueingTime:histogram:count 0
scalar SingleCell_D2D.pgw.ppp[0].queue queueingTime:histogram:sumweights 0
scalar SingleCell_D2D.pgw.ppp[0].queue queueingTime:histogram:mean -nan
scalar SingleCell_D2D.pgw.ppp[0].queue queueingTime:histogram:stddev nan
scalar SingleCell_D2D.pgw.ppp[0].queue queueingTime:histogram:min nan
scalar SingleCell_D2D.pgw.ppp[0].queue queueingTime:histogram:max nan
scalar SingleCell_D2D.pgw.ppp[0].queue queueingTime:histogram:numbins 1
scalar SingleCell_D2D.pgw.ppp[0].queue queueingTime:histogram:rangemin 0
scalar SingleCell_D2D.pgw.ppp[0].queue queueingTime:histogram:rangemax 1
scalar SingleCell_D2D.pgw.ppp[0].queue queueingTime:histogram:underflows 0
scalar SingleCell_D2D.pgw.ppp[0].queue queueingTime:histogram:overflows 0
scalar SingleCell_D2D.pgw.ppp[0].queue outgoingPacketLengths:histogram:count 0
scalar SingleCell_D2D.pgw.ppp[0].queue outgoingPacketLengths:histogram:sumweights 0
scalar SingleCell_D2D.pgw.ppp[0].queue outgoingPacketLengths:histogram:mean -nan
scalar SingleCell_D2D.pgw.ppp[0].queue outgoingPacketLengths:histogram:stddev nan
scalar SingleCell_D2D.pgw.ppp[0].queue outgoingPacketLengths:histogram:min nan
scalar SingleCell_D2D.pgw.ppp[0].queue outgoingPacketLengths:histogram:max nan
scalar SingleCell_D2D.pgw.ppp[0].queue outgoingPacketLengths:histogram:numbins 1
scalar SingleCell_D2D.pgw.ppp[0].queue outgoingPacketLengths:histogram:rangemin 0
scalar SingleCell_D2D.pgw.ppp[0].queue outgoingPacketLengths:histogram:rangemax 1
scalar SingleCell_D2D.pgw.ppp[0].queue outgoingPacketLengths:histogram:underflows 0
scalar SingleCell_D2D.pgw.ppp[0].queue outgoingPacketLengths:histogram:overflows 0
scalar SingleCell_D2D.pgw.ppp[0].queue flowQueueingTime:histogram:count 0
scalar SingleCell_D2D.pgw.ppp[0].queue flowQueueingTime:histogram:sumweights 0
scalar SingleCell_D2D.pgw.ppp[0].queue flowQueueingTime:histogram:mean -nan
scalar SingleCell_D2D.pgw.ppp[0].queue flowQueueingTime:histogram:stddev nan
scalar SingleCell_D2D.pgw.ppp[0].queue flowQueueingTime:histogram:min nan
scalar SingleCell_D2D.pgw.ppp[0].queue flowQueueingTime:histogram:max nan
scalar SingleCell_D2D.pgw.ppp[0].queue flowQueueingTime:histogram:numbins 1
scalar SingleCell_D2D.pgw.ppp[0].queue flowQueueingTime:histogram:rangemin 0
scalar SingleCell_D2D.pgw.ppp[0].queue flowQueueingTime:histogram:rangemax 1
scalar SingleCell_D2D.pgw.ppp[0].queue flowQueueingTime:histogram:underflows 0
scalar SingleCell_D2D.pgw.ppp[0].queue flowQueueingTime:histogram:overflows 0
scalar SingleCell_D2D.pgw.ppp[0].queue incomingPacketLengths:histogram:count 0
scalar SingleCell_D2D.pgw.ppp[0].queue incomingPacketLengths:histogram:sumweights 0
scalar SingleCell_D2D.pgw.ppp[0].queue incomingPacketLengths:histogram:mean -nan
scalar SingleCell_D2D.pgw.ppp[0].queue incomingPacketLengths:histogram:stddev nan
scalar SingleCell_D2D.pgw.ppp[0].queue incomingPacketLengths:histogram:min nan
scalar SingleCell_D2D.pgw.ppp[0].queue incomingPacketLengths:histogram:max nan
scalar SingleCell_D2D.pgw.ppp[0].queue incomingPacketLengths:histogram:numbins 1
scalar SingleCell_D2D.pgw.ppp[0].queue incomingPacketLengths:histogram:rangemin 0
scalar SingleCell_D2D.pgw.ppp[0].queue incomingPacketLengths:histogram:rangemax 1
scalar SingleCell_D2D.pgw.ppp[0].queue incomingPacketLengths:histogram:underflows 0
scalar SingleCell_D2D.pgw.ppp[0].queue incomingPacketLengths:histogram:overflows 0
scalar SingleCell_D2D.pgw.pppIf.queue queueingTime:histogram:count 0
scalar SingleCell_D2D.pgw.pppIf.queue queueingTime:histogram:sumweights 0
scalar SingleCell_D2D.pgw.pppIf.queue queueingTime:histogram:mean -nan
scalar SingleCell_D2D.pgw.pppIf.queue queueingTime:histogram:stddev nan
scalar SingleCell_D2D.pgw.pppIf.queue queueingTime:histogram:min nan
scalar SingleCell_D2D.pgw.pppIf.queue queueingTime:histogram:max nan
scalar SingleCell_D2D.pgw.pppIf.queue queueingTime:histogram:numbins 1
scalar SingleCell_D2D.pgw.pppIf.queue queueingTime:histogram:rangemin 0
scalar SingleCell_D2D.pgw.pppIf.queue queueingTime:histogram:rangemax 1
scalar SingleCell_D2D.pgw.pppIf.queue queueingTime:histogram:underflows 0
scalar SingleCell_D2D.pgw.pppIf.queue queueingTime:histogram:overflows 0
scalar SingleCell_D2D.pgw.pppIf.queue outgoingPacketLengths:histogram:count 0
scalar SingleCell_D2D.pgw.pppIf.queue outgoingPacketLengths:histogram:sumweights 0
scalar SingleCell_D2D.pgw.pppIf.queue outgoingPacketLengths:histogram:mean -nan
scalar SingleCell_D2D.pgw.pppIf.queue outgoingPacketLengths:histogram:stddev nan
scalar SingleCell_D2D.pgw.pppIf.queue outgoingPacketLengths:histogram:min nan
scalar SingleCell_D2D.pgw.pppIf.queue outgoingPacketLengths:histogram:max nan
scalar SingleCell_D2D.pgw.pppIf.queue outgoingPacketLengths:histogram:numbins 1
scalar SingleCell_D2D.pgw.pppIf.queue outgoingPacketLengths:histogram:rangemin 0
scalar SingleCell_D2D.pgw.pppIf.queue outgoingPacketLengths:histogram:rangemax 1
scalar SingleCell_D2D.pgw.pppIf.queue outgoingPacketLengths:histogram:underflows 0
scalar SingleCell_D2D.pgw.pppIf.queue outgoingPacketLengths:histogram:overflows 0
scalar SingleCell_D2D.pgw.pppIf.queue flowQueueingTime:histogram:count 0
scalar SingleCell_D2D.pgw.pppIf.queue flowQueueingTime:histogram:sumweights 0
scalar SingleCell_D2D.pgw.pppIf.queue flowQueueingTime:histogram:mean -nan
scalar SingleCell_D2D.pgw.pppIf.queue flowQueueingTime:histogram:stddev nan
scalar SingleCell_D2D.pgw.pppIf.queue flowQueueingTime:histogram:min nan
scalar SingleCell_D2D.pgw.pppIf.queue flowQueueingTime:histogram:max nan
scalar SingleCell_D2D.pgw.pppIf.queue flowQueueingTime:histogram:numbins 1
scalar SingleCell_D2D.pgw.pppIf.queue flowQueueingTime:histogram:rangemin 0
scalar SingleCell_D2D.pgw.pppIf.queue flowQueueingTime:histogram:rangemax 1
scalar SingleCell_D2D.pgw.pppIf.queue flowQueueingTime:histogram:underflows 0
scalar SingleCell_D2D.pgw.pppIf.queue flowQueueingTime:histogram:overflows 0
scalar SingleCell_D2D.pgw.pppIf.queue incomingPacketLengths:histogram:count 0
scalar SingleCell_D2D.pgw.pppIf.queue incomingPacketLengths:histogram:sumweights 0
scalar SingleCell_D2D.pgw.pppIf.queue incomingPacketLengths:histogram:mean -nan
scalar SingleCell_D2D.pgw.pppIf.queue incomingPacketLengths:histogram:stddev nan
scalar SingleCell_D2D.pgw.pppIf.queue incomingPacketLengths:histogram:min nan
scalar SingleCell_D2D.pgw.pppIf.queue incomingPacketLengths:histogram:max nan
scalar SingleCell_D2D.pgw.pppIf.queue incomingPacketLengths:histogram:numbins 1
scalar SingleCell_D2D.pgw.pppIf.queue incomingPacketLengths:histogram:rangemin 0
scalar SingleCell_D2D.pgw.pppIf.queue incomingPacketLengths:histogram:rangemax 1
scalar SingleCell_D2D.pgw.pppIf.queue incomingPacketLengths:histogram:underflows 0
scalar SingleCell_D2D.pgw.pppIf.queue incomingPacketLengths:histogram:overflows 0
scalar SingleCell_D2D.eNB.pppIf.queue queueingTime:histogram:count 0
scalar SingleCell_D2D.eNB.pppIf.queue queueingTime:histogram:sumweights 0
scalar SingleCell_D2D.eNB.pppIf.queue queueingTime:histogram:mean -nan
scalar SingleCell_D2D.eNB.pppIf.queue queueingTime:histogram:stddev nan
scalar SingleCell_D2D.eNB.pppIf.queue queueingTime:histogram:min nan
scalar SingleCell_D2D.eNB.pppIf.queue queueingTime:histogram:max nan
scalar SingleCell_D2D.eNB.pppIf.queue queueingTime:histogram:numbins 1
scalar SingleCell_D2D.eNB.pppIf.queue queueingTime:histogram:rangemin 0
scalar SingleCell_D2D.eNB.pppIf.queue queueingTime:histogram:rangemax 1
scalar SingleCell_D2D.eNB.pppIf.queue queueingTime:histogram:underflows 0
scalar SingleCell_D2D.eNB.pppIf.queue queueingTime:histogram:overflows 0
scalar SingleCell_D2D.eNB.pppIf.queue outgoingPacketLengths:histogram:count 0
scalar SingleCell_D2D.eNB.pppIf.queue outgoingPacketLengths:histogram:sumweights 0
scalar SingleCell_D2D.eNB.pppIf.queue outgoingPacketLengths:histogram:mean -nan
scalar SingleCell_D2D.eNB.pppIf.queue outgoingPacketLengths:histogram:stddev nan
scalar SingleCell_D2D.eNB.pppIf.queue outgoingPacketLengths:histogram:min nan
scalar SingleCell_D2D.eNB.pppIf.queue outgoingPacketLengths:histogram:max nan
scalar SingleCell_D2D.eNB.pppIf.queue outgoingPacketLengths:histogram:numbins 1
scalar SingleCell_D2D.eNB.pppIf.queue outgoingPacketLengths:histogram:rangemin 0
scalar SingleCell_D2D.eNB.pppIf.queue outgoingPacketLengths:histogram:rangemax 1
scalar SingleCell_D2D.eNB.pppIf.queue outgoingPacketLengths:histogram:underflows 0
scalar SingleCell_D2D.eNB.pppIf.queue outgoingPacketLengths:histogram:overflows 0
scalar SingleCell_D2D.eNB.pppIf.queue flowQueueingTime:histogram:count 0
scalar SingleCell_D2D.eNB.pppIf.queue flowQueueingTime:histogram:sumweights 0
scalar SingleCell_D2D.eNB.pppIf.queue flowQueueingTime:histogram:mean -nan
scalar SingleCell_D2D.eNB.pppIf.queue flowQueueingTime:histogram:stddev nan
scalar SingleCell_D2D.eNB.pppIf.queue flowQueueingTime:histogram:min nan
scalar SingleCell_D2D.eNB.pppIf.queue flowQueueingTime:histogram:max nan
scalar SingleCell_D2D.eNB.pppIf.queue flowQueueingTime:histogram:numbins 1
scalar SingleCell_D2D.eNB.pppIf.queue flowQueueingTime:histogram:rangemin 0
scalar SingleCell_D2D.eNB.pppIf.queue flowQueueingTime:histogram:rangemax 1
scalar SingleCell_D2D.eNB.pppIf.queue flowQueueingTime:histogram:underflows 0
scalar SingleCell_D2D.eNB.pppIf.queue flowQueueingTime:histogram:overflows 0
scalar SingleCell_D2D.eNB.pppIf.queue incomingPacketLengths:histogram:count 0
scalar SingleCell_D2D.eNB.pppIf.queue incomingPacketLengths:histogram:sumweights 0
scalar SingleCell_D2D.eNB.pppIf.queue incomingPacketLengths:histogram:mean -nan
scalar SingleCell_D2D.eNB.pppIf.queue incomingPacketLengths:histogram:stddev nan
[...]
scalar SingleCell_D2D.ueD2DRx[0].cellularNic.channelModel[0] rcvdSinrDl:vector:sum 2204.7729673205613
scalar SingleCell_D2D.ueD2DRx[0].cellularNic.channelModel[0] rcvdSinrDl:vector:sumweights 37
scalar SingleCell_D2D.ueD2DRx[0].cellularNic.channelModel[0] rcvdSinrDl:vector:mean 59.588458576231389
scalar SingleCell_D2D.ueD2DRx[0].cellularNic.channelModel[0] rcvdSinrDl:vector:stddev 0.15506267101548607
scalar SingleCell_D2D.ueD2DRx[0].cellularNic.channelModel[0] rcvdSinrDl:vector:min 59.300730407455461
scalar SingleCell_D2D.ueD2DRx[0].cellularNic.channelModel[0] rcvdSinrDl:vector:max 59.867999998872833
scalar SingleCell_D2D.ueD2DRx[0].cellularNic.channelModel[0] rcvdSinrDl:vector:starttime 4.0800000000000001
scalar SingleCell_D2D.ueD2DRx[0].cellularNic.channelModel[0] rcvdSinrDl:vector:endtime 4.8000000000000007
scalar SingleCell_D2D.ueD2DRx[0].cellularNic.channelModel[0] rcvdSinrUl:vector:count 0
scalar SingleCell_D2D.ueD2DRx[0].cellularNic.channelModel[0] rcvdSinrUl:vector:sum 0
scalar SingleCell_D2D.ueD2DRx[0].cellularNic.channelModel[0] rcvdSinrUl:vector:sumweights 0
scalar SingleCell_D2D.ueD2DRx[0].cellularNic.channelModel[0] rcvdSinrUl:vector:mean -nan
scalar SingleCell_D2D.ueD2DRx[0].cellularNic.channelModel[0] rcvdSinrUl:vector:stddev nan
scalar SingleCell_D2D.ueD2DRx[0].cellularNic.channelModel[0] rcvdSinrUl:vector:min inf
scalar SingleCell_D2D.ueD2DRx[0].cellularNic.channelModel[0] rcvdSinrUl:vector:max -inf
scalar SingleCell_D2D.ueD2DRx[0].cellularNic.channelModel[0] rcvdSinrUl:vector:starttime nan
scalar SingleCell_D2D.ueD2DRx[0].cellularNic.channelModel[0] rcvdSinrUl:vector:endtime nan
scalar SingleCell_D2D.ueD2DRx[0].cellularNic.channelModel[0] rcvdSinrD2D:vector:count 0
scalar SingleCell_D2D.ueD2DRx[0].cellularNic.channelModel[0] rcvdSinrD2D:vector:sum 0
scalar SingleCell_D2D.ueD2DRx[0].cellularNic.channelModel[0] rcvdSinrD2D:vector:sumweights 0
scalar SingleCell_D2D.ueD2DRx[0].cellularNic.channelModel[0] rcvdSinrD2D:vector:mean -nan
scalar SingleCell_D2D.ueD2DRx[0].cellularNic.channelModel[0] rcvdSinrD2D:vector:stddev nan
scalar SingleCell_D2D.ueD2DRx[0].cellularNic.channelModel[0] rcvdSinrD2D:vector:min inf
scalar SingleCell_D2D.ueD2DRx[0].cellularNic.channelModel[0] rcvdSinrD2D:vector:max -inf
scalar SingleCell_D2D.ueD2DRx[0].cellularNic.channelModel[0] rcvdSinrD2D:vector:starttime nan
scalar SingleCell_D2D.ueD2DRx[0].cellularNic.channelModel[0] rcvdSinrD2D:vector:endtime nan
scalar SingleCell_D2D.ueD2DRx[0].cellularNic.channelModel[0] measuredSinrDl:vector:count 834
scalar SingleCell_D2D.ueD2DRx[0].cellularNic.channelModel[0] measuredSinrDl:vector:sum 50610.091093409115
scalar SingleCell_D2D.ueD2DRx[0].cellularNic.channelModel[0] measuredSinrDl:vector:sumweights 834
scalar SingleCell_D2D.ueD2DRx[0].cellularNic.channelModel[0] measuredSinrDl:vector:mean 60.683562462121245
scalar SingleCell_D2D.ueD2DRx[0].cellularNic.channelModel[0] measuredSinrDl:vector:stddev 0.74344042097224805
scalar SingleCell_D2D.ueD2DRx[0].cellularNic.channelModel[0] measuredSinrDl:vector:min 59.22674688055227
scalar SingleCell_D2D.ueD2DRx[0].cellularNic.channelModel[0] measuredSinrDl:vector:max 61.677477643617891
scalar SingleCell_D2D.ueD2DRx[0].cellularNic.channelModel[0] measuredSinrDl:vector:starttime 0.002
scalar SingleCell_D2D.ueD2DRx[0].cellularNic.channelModel[0] measuredSinrDl:vector:endtime 5
scalar SingleCell_D2D.ueD2DRx[0].cellularNic.channelModel[0] measuredSinrUl:vector:count 834
scalar SingleCell_D2D.ueD2DRx[0].cellularNic.channelModel[0] measuredSinrUl:vector:sum 35598.091093409384
scalar SingleCell_D2D.ueD2DRx[0].cellularNic.channelModel[0] measuredSinrUl:vector:sumweights 834
scalar SingleCell_D2D.ueD2DRx[0].cellularNic.channelModel[0] measuredSinrUl:vector:mean 42.683562462121564
scalar SingleCell_D2D.ueD2DRx[0].cellularNic.channelModel[0] measuredSinrUl:vector:stddev 0.74344042095006613
scalar SingleCell_D2D.ueD2DRx[0].cellularNic.channelModel[0] measuredSinrUl:vector:min 41.226746880552334
scalar SingleCell_D2D.ueD2DRx[0].cellularNic.channelModel[0] measuredSinrUl:vector:max 43.677477643617948
scalar SingleCell_D2D.ueD2DRx[0].cellularNic.channelModel[0] measuredSinrUl:vector:starttime 0.002
scalar SingleCell_D2D.ueD2DRx[0].cellularNic.channelModel[0] measuredSinrUl:vector:endtime 5
scalar SingleCell_D2D.ueD2DRx[0].cellularNic packetDropInterfaceDown:vector(packetBytes):count 0
scalar SingleCell_D2D.ueD2DRx[0].cellularNic packetDropInterfaceDown:vector(packetBytes):sum 0
scalar SingleCell_D2D.ueD2DRx[0].cellularNic packetDropInterfaceDown:vector(packetBytes):sumweights 0
scalar SingleCell_D2D.ueD2DRx[0].cellularNic packetDropInterfaceDown:vector(packetBytes):mean -nan
scalar SingleCell_D2D.ueD2DRx[0].cellularNic packetDropInterfaceDown:vector(packetBytes):stddev nan
scalar SingleCell_D2D.ueD2DRx[0].cellularNic packetDropInterfaceDown:vector(packetBytes):min inf
scalar SingleCell_D2D.ueD2DRx[0].cellularNic packetDropInterfaceDown:vector(packetBytes):max -inf
scalar SingleCell_D2D.ueD2DRx[0].cellularNic packetDropInterfaceDown:vector(packetBytes):starttime nan
scalar SingleCell_D2D.ueD2DRx[0].cellularNic packetDropInterfaceDown:vector(packetBytes):endtime nan
scalar SingleCell_D2D.ueD2DRx[0].cellularNic packetDropNoCarrier:vector(packetBytes):count 0
scalar SingleCell_D2D.ueD2DRx[0].cellularNic packetDropNoCarrier:vector(packetBytes):sum 0
scalar SingleCell_D2D.ueD2DRx[0].cellularNic packetDropNoCarrier:vector(packetBytes):sumweights 0
scalar SingleCell_D2D.ueD2DRx[0].cellularNic packetDropNoCarrier:vector(packetBytes):mean -nan
scalar SingleCell_D2D.ueD2DRx[0].cellularNic packetDropNoCarrier:vector(packetBytes):stddev nan
scalar SingleCell_D2D.ueD2DRx[0].cellularNic packetDropNoCarrier:vector(packetBytes):min inf
scalar SingleCell_D2D.ueD2DRx[0].cellularNic packetDropNoCarrier:vector(packetBytes):max -inf
scalar SingleCell_D2D.ueD2DRx[0].cellularNic packetDropNoCarrier:vector(packetBytes):starttime nan
scalar SingleCell_D2D.ueD2DRx[0].cellularNic packetDropNoCarrier:vector(packetBytes):endtime nan
scalar SingleCell_D2D.ueD2DRx[0].encap encapPk:vector(packetBytes):count 0
scalar SingleCell_D2D.ueD2DRx[0].encap encapPk:vector(packetBytes):sum 0
scalar SingleCell_D2D.ueD2DRx[0].encap encapPk:vector(packetBytes):sumweights 0
scalar SingleCell_D2D.ueD2DRx[0].encap encapPk:vector(packetBytes):mean -nan
scalar SingleCell_D2D.ueD2DRx[0].encap encapPk:vector(packetBytes):stddev nan
scalar SingleCell_D2D.ueD2DRx[0].encap encapPk:vector(packetBytes):min inf
scalar SingleCell_D2D.ueD2DRx[0].encap encapPk:vector(packetBytes):max -inf
scalar SingleCell_D2D.ueD2DRx[0].encap encapPk:vector(packetBytes):starttime nan
scalar SingleCell_D2D.ueD2DRx[0].encap encapPk:vector(packetBytes):endtime nan
scalar SingleCell_D2D.ueD2DRx[0].encap decapPk:vector(packetBytes):count 0
scalar SingleCell_D2D.ueD2DRx[0].encap decapPk:vector(packetBytes):sum 0
scalar SingleCell_D2D.ueD2DRx[0].encap decapPk:vector(packetBytes):sumweights 0
scalar SingleCell_D2D.ueD2DRx[0].encap decapPk:vector(packetBytes):mean -nan
scalar SingleCell_D2D.ueD2DRx[0].encap decapPk:vector(packetBytes):stddev nan
scalar SingleCell_D2D.ueD2DRx[0].encap decapPk:vector(packetBytes):min inf
scalar SingleCell_D2D.ueD2DRx[0].encap decapPk:vector(packetBytes):max -inf
scalar SingleCell_D2D.ueD2DRx[0].encap decapPk:vector(packetBytes):starttime nan
scalar SingleCell_D2D.ueD2DRx[0].encap decapPk:vector(packetBytes):endtime nan
scalar SingleCell_D2D.ueD2DRx[0].encap pauseSent:vector:count 0
scalar SingleCell_D2D.ueD2DRx[0].encap pauseSent:vector:sum 0
scalar SingleCell_D2D.ueD2DRx[0].encap pauseSent:vector:sumweights 0
scalar SingleCell_D2D.ueD2DRx[0].encap pauseSent:vector:mean -nan
scalar SingleCell_D2D.ueD2DRx[0].encap pauseSent:vector:stddev nan
scalar SingleCell_D2D.ueD2DRx[0].encap pauseSent:vector:min inf
scalar SingleCell_D2D.ueD2DRx[0].encap pauseSent:vector:max -inf
scalar SingleCell_D2D.ueD2DRx[0].encap pauseSent:vector:starttime nan
scalar SingleCell_D2D.ueD2DRx[0].encap pauseSent:vector:endtime nan
scalar SingleCell_D2D.ueD2DRx[0].ipv4.ip packetDropAddressResolutionFailed:vector(packetBytes):count 0
scalar SingleCell_D2D.ueD2DRx[0].ipv4.ip packetDropAddressResolutionFailed:vector(packetBytes):sum 0
scalar SingleCell_D2D.ueD2DRx[0].ipv4.ip packetDropAddressResolutionFailed:vector(packetBytes):sumweights 0
scalar SingleCell_D2D.ueD2DRx[0].ipv4.ip packetDropAddressResolutionFailed:vector(packetBytes):mean -nan
scalar SingleCell_D2D.ueD2DRx[0].ipv4.ip packetDropAddressResolutionFailed:vector(packetBytes):stddev nan
scalar SingleCell_D2D.ueD2DRx[0].ipv4.ip packetDropAddressResolutionFailed:vector(packetBytes):min inf
scalar SingleCell_D2D.ueD2DRx[0].ipv4.ip packetDropAddressResolutionFailed:vector(packetBytes):max -inf
scalar SingleCell_D2D.ueD2DRx[0].ipv4.ip packetDropAddressResolutionFailed:vector(packetBytes):starttime nan
scalar SingleCell_D2D.ueD2DRx[0].ipv4.ip packetDropAddressResolutionFailed:vector(packetBytes):endtime nan
scalar SingleCell_D2D.ueD2DRx[0].ipv4.ip packetDropHopLimitReached:vector(packetBytes):count 0
scalar SingleCell_D2D.ueD2DRx[0].ipv4.ip packetDropHopLimitReached:vector(packetBytes):sum 0
scalar SingleCell_D2D.ueD2DRx[0].ipv4.ip packetDropHopLimitReached:vector(packetBytes):sumweights 0
scalar SingleCell_D2D.ueD2DRx[0].ipv4.ip packetDropHopLimitReached:vector(packetBytes):mean -nan
scalar SingleCell_D2D.ueD2DRx[0].ipv4.ip packetDropHopLimitReached:vector(packetBytes):stddev nan
scalar SingleCell_D2D.ueD2DRx[0].ipv4.ip packetDropHopLimitReached:vector(packetBytes):min inf
scalar SingleCell_D2D.ueD2DRx[0].ipv4.ip packetDropHopLimitReached:vector(packetBytes):max -inf
scalar SingleCell_D2D.ueD2DRx[0].ipv4.ip packetDropHopLimitReached:vector(packetBytes):starttime nan
scalar SingleCell_D2D.ueD2DRx[0].ipv4.ip packetDropHopLimitReached:vector(packetBytes):endtime nan
scalar SingleCell_D2D.ueD2DRx[0].ipv4.ip packetDropForwardingDisabled:vector(packetBytes):count 0
scalar SingleCell_D2D.ueD2DRx[0].ipv4.ip packetDropForwardingDisabled:vector(packetBytes):sum 0
scalar SingleCell_D2D.ueD2DRx[0].ipv4.ip packetDropForwardingDisabled:vector(packetBytes):sumweights 0
scalar SingleCell_D2D.ueD2DRx[0].ipv4.ip packetDropForwardingDisabled:vector(packetBytes):mean -nan
scalar SingleCell_D2D.ueD2DRx[0].ipv4.ip packetDropForwardingDisabled:vector(packetBytes):stddev nan
scalar SingleCell_D2D.ueD2DRx[0].ipv4.ip packetDropForwardingDisabled:vector(packetBytes):min inf
scalar SingleCell_D2D.ueD2DRx[0].ipv4.ip packetDropForwardingDisabled:vector(packetBytes):max -inf
scalar SingleCell_D2D.ueD2DRx[0].ipv4.ip packetDropForwardingDisabled:vector(packetBytes):starttime nan
scalar SingleCell_D2D.ueD2DRx[0].ipv4.ip packetDropForwardingDisabled:vector(packetBytes):endtime nan
scalar SingleCell_D2D.ueD2DRx[0].ipv4.ip packetDropNoInterfaceFound:vector(packetBytes):count 0
scalar SingleCell_D2D.ueD2DRx[0].ipv4.ip packetDropNoInterfaceFound:vector(packetBytes):sum 0
scalar SingleCell_D2D.ueD2DRx[0].ipv4.ip packetDropNoInterfaceFound:vector(packetBytes):sumweights 0
scalar SingleCell_D2D.ueD2DRx[0].ipv4.ip packetDropNoInterfaceFound:vector(packetBytes):mean -nan
scalar SingleCell_D2D.ueD2DRx[0].ipv4.ip packetDropNoInterfaceFound:vector(packetBytes):stddev nan
scalar SingleCell_D2D.ueD2DRx[0].ipv4.ip packetDropNoInterfaceFound:vector(packetBytes):min inf
scalar SingleCell_D2D.ueD2DRx[0].ipv4.ip packetDropNoInterfaceFound:vector(packetBytes):max -inf
scalar SingleCell_D2D.ueD2DRx[0].ipv4.ip packetDropNoInterfaceFound:vector(packetBytes):starttime nan
scalar SingleCell_D2D.ueD2DRx[0].ipv4.ip packetDropNoInterfaceFound:vector(packetBytes):endtime nan
scalar SingleCell_D2D.ueD2DRx[0].ipv4.ip packetDropNoRouteFound:vector(packetBytes):count 0
scalar SingleCell_D2D.ueD2DRx[0].ipv4.ip packetDropNoRouteFound:vector(packetBytes):sum 0
scalar SingleCell_D2D.ueD2DRx[0].ipv4.ip packetDropNoRouteFound:vector(packetBytes):sumweights 0
scalar SingleCell_D2D.ueD2DRx[0].ipv4.ip packetDropNoRouteFound:vector(packetBytes):mean -nan
scalar SingleCell_D2D.ueD2DRx[0].ipv4.ip packetDropNoRouteFound:vector(packetBytes):stddev nan
scalar SingleCell_D2D.ueD2DRx[0].ipv4.ip packetDropNoRouteFound:vector(packetBytes):min inf
scalar SingleCell_D2D.ueD2DRx[0].ipv4.ip packetDropNoRouteFound:vector(packetBytes):max -inf
scalar SingleCell_D2D.ueD2DRx[0].ipv4.ip packetDropNoRouteFound:vector(packetBytes):starttime nan
scalar SingleCell_D2D.ueD2DRx[0].ipv4.ip packetDropNoRouteFound:vector(packetBytes):endtime nan
scalar SingleCell_D2D.ueD2DRx[0].ipv4.ip packetDropUndefined:vector(packetBytes):count 0
scalar SingleCell_D2D.ueD2DRx[0].ipv4.ip packetDropUndefined:vector(packetBytes):sum 0
scalar SingleCell_D2D.ueD2DRx[0].ipv4.ip packetDropUndefined:vector(packetBytes):sumweights 0
scalar SingleCell_D2D.ueD2DRx[0].ipv4.ip packetDropUndefined:vector(packetBytes):mean -nan
scalar SingleCell_D2D.ueD2DRx[0].ipv4.ip packetDropUndefined:vector(packetBytes):stddev nan
scalar SingleCell_D2D.ueD2DRx[0].ipv4.ip packetDropUndefined:vector(packetBytes):min inf
scalar SingleCell_D2D.ueD2DRx[0].ipv4.ip packetDropUndefined:vector(packetBytes):max -inf
scalar SingleCell_D2D.ueD2DRx[0].ipv4.ip packetDropUndefined:vector(packetBytes):starttime nan
scalar SingleCell_D2D.ueD2DRx[0].ipv4.ip packetDropUndefined:vector(packetBytes):endtime nan
scalar SingleCell_D2D.ueD2DRx[0].ipv4.arp arpRequestSent:vector(packetBytes):count 0
scalar SingleCell_D2D.ueD2DRx[0].ipv4.arp arpRequestSent:vector(packetBytes):sum 0
scalar SingleCell_D2D.ueD2DRx[0].ipv4.arp arpRequestSent:vector(packetBytes):sumweights 0
scalar SingleCell_D2D.ueD2DRx[0].ipv4.arp arpRequestSent:vector(packetBytes):mean -nan
scalar SingleCell_D2D.ueD2DRx[0].ipv4.arp arpRequestSent:vector(packetBytes):stddev nan
scalar SingleCell_D2D.ueD2DRx[0].ipv4.arp arpRequestSent:vector(packetBytes):min inf
scalar SingleCell_D2D.ueD2DRx[0].ipv4.arp arpRequestSent:vector(packetBytes):max -inf
scalar SingleCell_D2D.ueD2DRx[0].ipv4.arp arpRequestSent:vector(packetBytes):starttime nan
scalar SingleCell_D2D.ueD2DRx[0].ipv4.arp arpRequestSent:vector(packetBytes):endtime nan
scalar SingleCell_D2D.ueD2DRx[0].ipv4.arp arpReplySent:vector(packetBytes):count 0
scalar SingleCell_D2D.ueD2DRx[0].ipv4.arp arpReplySent:vector(packetBytes):sum 0
scalar SingleCell_D2D.ueD2DRx[0].ipv4.arp arpReplySent:vector(packetBytes):sumweights 0
scalar SingleCell_D2D.ueD2DRx[0].ipv4.arp arpReplySent:vector(packetBytes):mean -nan
scalar SingleCell_D2D.ueD2DRx[0].ipv4.arp arpReplySent:vector(packetBytes):stddev nan
scalar SingleCell_D2D.ueD2DRx[0].ipv4.arp arpReplySent:vector(packetBytes):min inf
scalar SingleCell_D2D.ueD2DRx[0].ipv4.arp arpReplySent:vector(packetBytes):max -inf
scalar SingleCell_D2D.ueD2DRx[0].ipv4.arp arpReplySent:vector(packetBytes):starttime nan
scalar SingleCell_D2D.ueD2DRx[0].ipv4.arp arpReplySent:vector(packetBytes):endtime nan
scalar SingleCell_D2D.ueD2DRx[0].udp packetSent:vector(packetBytes):count 0
scalar SingleCell_D2D.ueD2DRx[0].udp packetSent:vector(packetBytes):sum 0
scalar SingleCell_D2D.ueD2DRx[0].udp packetSent:vector(packetBytes):sumweights 0
scalar SingleCell_D2D.ueD2DRx[0].udp packetSent:vector(packetBytes):mean -nan
scalar SingleCell_D2D.ueD2DRx[0].udp packetSent:vector(packetBytes):stddev nan
scalar SingleCell_D2D.ueD2DRx[0].udp packetSent:vector(packetBytes):min inf
scalar SingleCell_D2D.ueD2DRx[0].udp packetSent:vector(packetBytes):max -inf
scalar SingleCell_D2D.ueD2DRx[0].udp packetSent:vector(packetBytes):starttime nan
scalar SingleCell_D2D.ueD2DRx[0].udp packetSent:vector(packetBytes):endtime nan
scalar SingleCell_D2D.ueD2DRx[0].udp packetReceived:vector(packetBytes):count 166
scalar SingleCell_D2D.ueD2DRx[0].udp packetReceived:vector(packetBytes):sum 7968
scalar SingleCell_D2D.ueD2DRx[0].udp packetReceived:vector(packetBytes):sumweights 166
scalar SingleCell_D2D.ueD2DRx[0].udp packetReceived:vector(packetBytes):mean 48
scalar SingleCell_D2D.ueD2DRx[0].udp packetReceived:vector(packetBytes):stddev 0
scalar SingleCell_D2D.ueD2DRx[0].udp packetReceived:vector(packetBytes):min 48
scalar SingleCell_D2D.ueD2DRx[0].udp packetReceived:vector(packetBytes):max 48
scalar SingleCell_D2D.ueD2DRx[0].udp packetReceived:vector(packetBytes):starttime 0.024
scalar SingleCell_D2D.ueD2DRx[0].udp packetReceived:vector(packetBytes):endtime 4.8029999999999999
scalar SingleCell_D2D.ueD2DRx[0].udp passedUpPk:vector(count):count 167
scalar SingleCell_D2D.ueD2DRx[0].udp passedUpPk:vector(count):sum 13861
scalar SingleCell_D2D.ueD2DRx[0].udp passedUpPk:vector(count):sumweights 167
scalar SingleCell_D2D.ueD2DRx[0].udp passedUpPk:vector(count):mean 83
scalar SingleCell_D2D.ueD2DRx[0].udp passedUpPk:vector(count):stddev 48.352869614946329
scalar SingleCell_D2D.ueD2DRx[0].udp passedUpPk:vector(count):min 0
scalar SingleCell_D2D.ueD2DRx[0].udp passedUpPk:vector(count):max 166
scalar SingleCell_D2D.ueD2DRx[0].udp passedUpPk:vector(count):starttime 0
scalar SingleCell_D2D.ueD2DRx[0].udp passedUpPk:vector(count):endtime 4.8029999999999999
scalar SingleCell_D2D.ueD2DRx[0].udp droppedPkWrongPort:vector(count):count 1
scalar SingleCell_D2D.ueD2DRx[0].udp droppedPkWrongPort:vector(count):sum 0
scalar SingleCell_D2D.ueD2DRx[0].udp droppedPkWrongPort:vector(count):sumweights 1
scalar SingleCell_D2D.ueD2DRx[0].udp droppedPkWrongPort:vector(count):mean 0
scalar SingleCell_D2D.ueD2DRx[0].udp droppedPkWrongPort:vector(count):stddev nan
scalar SingleCell_D2D.ueD2DRx[0].udp droppedPkWrongPort:vector(count):min 0
scalar SingleCell_D2D.ueD2DRx[0].udp droppedPkWrongPort:vector(count):max 0
scalar SingleCell_D2D.ueD2DRx[0].udp droppedPkWrongPort:vector(count):starttime 0
scalar SingleCell_D2D.ueD2DRx[0].udp droppedPkWrongPort:vector(count):endtime 0
scalar SingleCell_D2D.ueD2DRx[0].udp droppedPkBadChecksum:vector(count):count 1
scalar SingleCell_D2D.ueD2DRx[0].udp droppedPkBadChecksum:vector(count):sum 0
scalar SingleCell_D2D.ueD2DRx[0].udp droppedPkBadChecksum:vector(count):sumweights 1
scalar SingleCell_D2D.ueD2DRx[0].udp droppedPkBadChecksum:vector(count):mean 0
scalar SingleCell_D2D.ueD2DRx[0].udp droppedPkBadChecksum:vector(count):stddev nan
scalar SingleCell_D2D.ueD2DRx[0].udp droppedPkBadChecksum:vector(count):min 0
scalar SingleCell_D2D.ueD2DRx[0].udp droppedPkBadChecksum:vector(count):max 0
scalar SingleCell_D2D.ueD2DRx[0].udp droppedPkBadChecksum:vector(count):starttime 0
scalar SingleCell_D2D.ueD2DRx[0].udp droppedPkBadChecksum:vector(count):endtime 0
scalar SingleCell_D2D.ueD2DRx[0].app[0] voipFrameDelay:vector:count 166
scalar SingleCell_D2D.ueD2DRx[0].app[0] voipFrameDelay:vector:sum 2.3115126409720061
scalar SingleCell_D2D.ueD2DRx[0].app[0] voipFrameDelay:vector:sumweights 166
scalar SingleCell_D2D.ueD2DRx[0].app[0] voipFrameDelay:vector:mean 0.013924774945614496
scalar SingleCell_D2D.ueD2DRx[0].app[0] voipFrameDelay:vector:stddev 0.00052653441545875068
scalar SingleCell_D2D.ueD2DRx[0].app[0] voipFrameDelay:vector:min 0.013021538918
scalar SingleCell_D2D.ueD2DRx[0].app[0] voipFrameDelay:vector:max 0.014897719138000001
scalar SingleCell_D2D.ueD2DRx[0].app[0] voipFrameDelay:vector:starttime 0.024
scalar SingleCell_D2D.ueD2DRx[0].app[0] voipFrameDelay:vector:endtime 4.8029999999999999
scalar SingleCell_D2D.ueD2DRx[0].app[0] voipReceivedThroughput:vector:count 166
scalar SingleCell_D2D.ueD2DRx[0].app[0] voipReceivedThroughput:vector:sum 224174.09850516747
scalar SingleCell_D2D.ueD2DRx[0].app[0] voipReceivedThroughput:vector:sumweights 166
scalar SingleCell_D2D.ueD2DRx[0].app[0] voipReceivedThroughput:vector:mean 1350.4463765371534
scalar SingleCell_D2D.ueD2DRx[0].app[0] voipReceivedThroughput:vector:stddev 388.26262788412032
scalar SingleCell_D2D.ueD2DRx[0].app[0] voipReceivedThroughput:vector:min 761.42131979695432
scalar SingleCell_D2D.ueD2DRx[0].app[0] voipReceivedThroughput:vector:max 1990.5213270142181
scalar SingleCell_D2D.ueD2DRx[0].app[0] voipReceivedThroughput:vector:starttime 0.024
scalar SingleCell_D2D.ueD2DRx[0].app[0] voipReceivedThroughput:vector:endtime 4.8029999999999999

