version 3
run MultiplePairs-TCP-Infra-0-20260712-20:59:08-252132
attr configname MultiplePairs-TCP-Infra
attr datetime 20260712-20:59:08
attr datetimef 20260712-205908
attr experiment MultiplePairs-TCP-Infra
attr inifile omnetpp.ini
attr iterationvars $numPairs=5
attr iterationvarsd numPairs=5
attr iterationvarsf numPairs=5-
attr measurement $numPairs=5
attr network simu5g.simulations.lte.networks.SingleCell_D2D
attr processid 252132
attr repetition 0
attr replication #0
attr resultdir results
attr runnumber 0
attr seedset 0
itervar numPairs 5
config **.param-recording false
config image-path /home/andras/projects/Simu5G-fork/simu5g-fork/images
config output-scalar-file results/omnetpp.ini-MultiplePairs-TCP-Infra-#0.sca
config output-scalar-precision 17
config output-vector-file results/omnetpp.ini-MultiplePairs-TCP-Infra-#0.vec
config output-vector-precision 17
config record-eventlog false
config sim-time-limit 5s
config extends MultiplePairs
config *.ueD2D*[*].numApps 1
config *.ueD2DTx[*].app[*].typename TcpSessionApp
config *.ueD2DTx[*].app[*].connectPort 1000
config *.ueD2DTx[*].app[*].localPort 1000
config *.ueD2DTx[*].app[*].sendBytes 1GiB
config *.ueD2DTx[*].app[*].active true
config *.ueD2DTx[*].app[*].tOpen uniform(0.010s,0.1s)
config *.ueD2DTx[*].app[*].tSend uniform(0.15s,0.5s)
config *.ueD2DTx[*].app[*].connectAddress "\"ueD2DRx[\" + string(ancestorIndex(1)) + \"]\""
config *.ueD2DTx[*].app[*].localAddress "\"ueD2DTx[\" + string(ancestorIndex(1)) + \"]\""
config *.ueD2DRx[*].app[*].typename TcpSinkApp
config *.ueD2DRx[*].app[*].localPort 1000
config **.app[*].tClose -1s
config *.eNB*.cellularNic.typename LteNicEnb
config *.ueD2D*[*].cellularNic.typename LteNicUe
config **.amcMode "\"AUTO\""
config network simu5g.simulations.lte.networks.SingleCell_D2D
config *.eNB.mobility.initFromDisplayString false
config *.eNB.mobility.initialX 300m
config *.eNB.mobility.initialY 300m
config *.numUeCell 0
config *.numUeD2DTx 5
config *.numUeD2DRx 5
config *.ue*[*].servingNodeId 1
config *.ue*[*].mobility.initFromDisplayString false
config *.ueD2D*[*].mobility.initialX uniform(290m,310m)
config *.ueD2D*[*].mobility.initialY uniform(340m,350m)
config sim-time-limit 5s
config warmup-period 0s
config repeat 3
config **.routingRecorder.enabled false
config output-scalar-file results/MultiplePairs-TCP-Infra/0.sca
config output-vector-file results/MultiplePairs-TCP-Infra/0.vec
config seed-set 0
config **.vector-recording true
config **.mobility.constraintAreaMinZ 0m
config **.mobility.constraintAreaMaxZ 0m
config **.numBands 50
config *.configurator.config "xmldoc(\"./demo.xml\")"

scalar SingleCell_D2D.server.lo[0].lo rcvdPkFromHl:count 0
scalar SingleCell_D2D.server.lo[0].lo rcvdPkFromHl:sum(packetBytes) 0
scalar SingleCell_D2D.server.lo[0].lo passedUpPk:count 0
scalar SingleCell_D2D.server.lo[0].lo passedUpPk:sum(packetBytes) 0
scalar SingleCell_D2D.server.lo[0] packetDropInterfaceDown:count 0
scalar SingleCell_D2D.server.lo[0] packetDropInterfaceDown:sum(packetBytes) 0
scalar SingleCell_D2D.server.lo[0] packetDropNoCarrier:count 0
scalar SingleCell_D2D.server.lo[0] packetDropNoCarrier:sum(packetBytes) 0
scalar SingleCell_D2D.server.ppp[0].queue queueLength:last 0
scalar SingleCell_D2D.server.ppp[0].queue queueLength:max 0
scalar SingleCell_D2D.server.ppp[0].queue queueLength:timeavg 0
scalar SingleCell_D2D.server.ppp[0].queue queueBitLength:last 0
scalar SingleCell_D2D.server.ppp[0].queue queueBitLength:max 0
scalar SingleCell_D2D.server.ppp[0].queue queueBitLength:timeavg 0
scalar SingleCell_D2D.server.ppp[0].queue outgoingPackets:count 0
scalar SingleCell_D2D.server.ppp[0].queue outgoingPacketLengths:sum 0
scalar SingleCell_D2D.server.ppp[0].queue incomingPackets:count 0
scalar SingleCell_D2D.server.ppp[0].queue incomingPacketLengths:sum 0
scalar SingleCell_D2D.server.ppp[0].queue droppedPacketsQueueOverflow:count 0
scalar SingleCell_D2D.server.ppp[0].queue droppedPacketLengthsQueueOverflow:sum 0
scalar SingleCell_D2D.server.ppp[0].ppp transmissionState:timeavg 0
scalar SingleCell_D2D.server.ppp[0].ppp rxPkOk:count 0
scalar SingleCell_D2D.server.ppp[0].ppp rxPkOk:sum(packetBytes) 0
scalar SingleCell_D2D.server.ppp[0].ppp txPk:count 0
scalar SingleCell_D2D.server.ppp[0].ppp txPk:sum(packetBytes) 0
scalar SingleCell_D2D.server.ppp[0].ppp rcvdPkFromHl:count 0
scalar SingleCell_D2D.server.ppp[0].ppp rcvdPkFromHl:sum(packetBytes) 0
scalar SingleCell_D2D.server.ppp[0].ppp passedUpPk:count 0
scalar SingleCell_D2D.server.ppp[0].ppp passedUpPk:sum(packetBytes) 0
scalar SingleCell_D2D.server.ppp[0].ppp packetDropIncorrectlyReceived:count 0
scalar SingleCell_D2D.server.ppp[0].ppp packetDropIncorrectlyReceived:sum(packetBytes) 0
scalar SingleCell_D2D.server.ppp[0].ppp packetDropInterfaceDown:count 0
scalar SingleCell_D2D.server.ppp[0].ppp packetDropInterfaceDown:sum(packetBytes) 0
scalar SingleCell_D2D.server.ppp[0] packetDropInterfaceDown:count 0
scalar SingleCell_D2D.server.ppp[0] packetDropInterfaceDown:sum(packetBytes) 0
scalar SingleCell_D2D.server.ppp[0] packetDropNoCarrier:count 0
scalar SingleCell_D2D.server.ppp[0] packetDropNoCarrier:sum(packetBytes) 0
scalar SingleCell_D2D.server.ipv4.ip packetDropAddressResolutionFailed:count 0
scalar SingleCell_D2D.server.ipv4.ip packetDropAddressResolutionFailed:sum(packetBytes) 0
scalar SingleCell_D2D.server.ipv4.ip packetDropHopLimitReached:count 0
scalar SingleCell_D2D.server.ipv4.ip packetDropHopLimitReached:sum(packetBytes) 0
scalar SingleCell_D2D.server.ipv4.ip packetDropForwardingDisabled:count 0
scalar SingleCell_D2D.server.ipv4.ip packetDropForwardingDisabled:sum(packetBytes) 0
scalar SingleCell_D2D.server.ipv4.ip packetDropNoInterfaceFound:count 0
scalar SingleCell_D2D.server.ipv4.ip packetDropNoInterfaceFound:sum(packetBytes) 0
scalar SingleCell_D2D.server.ipv4.ip packetDropNoRouteFound:count 0
scalar SingleCell_D2D.server.ipv4.ip packetDropNoRouteFound:sum(packetBytes) 0
scalar SingleCell_D2D.server.ipv4.ip packetDropUndefined:count 0
scalar SingleCell_D2D.server.ipv4.ip packetDropUndefined:sum(packetBytes) 0
scalar SingleCell_D2D.server.ipv4.arp arpResolutionFailed:count 0
scalar SingleCell_D2D.server.ipv4.arp arpResolutionCompleted:count 0
scalar SingleCell_D2D.server.ipv4.arp arpResolutionInitiated:count 0
scalar SingleCell_D2D.server.ipv4.arp arpReplySent:count 0
scalar SingleCell_D2D.server.ipv4.arp arpReplySent:sum(packetBytes) 0
scalar SingleCell_D2D.server.ipv4.arp arpRequestSent:count 0
scalar SingleCell_D2D.server.ipv4.arp arpRequestSent:sum(packetBytes) 0
scalar SingleCell_D2D.server.udp packetReceived:count 0
scalar SingleCell_D2D.server.udp packetReceived:sum(packetBytes) 0
scalar SingleCell_D2D.server.udp packetSent:count 0
scalar SingleCell_D2D.server.udp packetSent:sum(packetBytes) 0
scalar SingleCell_D2D.server.udp passedUpPk:count 0
scalar SingleCell_D2D.server.udp droppedPkWrongPort:count 0
scalar SingleCell_D2D.server.udp droppedPkBadChecksum:count 0
scalar SingleCell_D2D.router.lo[0].lo rcvdPkFromHl:count 0
scalar SingleCell_D2D.router.lo[0].lo rcvdPkFromHl:sum(packetBytes) 0
scalar SingleCell_D2D.router.lo[0].lo passedUpPk:count 0
scalar SingleCell_D2D.router.lo[0].lo passedUpPk:sum(packetBytes) 0
scalar SingleCell_D2D.router.lo[0] packetDropInterfaceDown:count 0
scalar SingleCell_D2D.router.lo[0] packetDropInterfaceDown:sum(packetBytes) 0
scalar SingleCell_D2D.router.lo[0] packetDropNoCarrier:count 0
scalar SingleCell_D2D.router.lo[0] packetDropNoCarrier:sum(packetBytes) 0
scalar SingleCell_D2D.router.ppp[0].queue queueLength:last 0
scalar SingleCell_D2D.router.ppp[0].queue queueLength:max 0
scalar SingleCell_D2D.router.ppp[0].queue queueLength:timeavg 0
scalar SingleCell_D2D.router.ppp[0].queue queueBitLength:last 0
scalar SingleCell_D2D.router.ppp[0].queue queueBitLength:max 0
scalar SingleCell_D2D.router.ppp[0].queue queueBitLength:timeavg 0
scalar SingleCell_D2D.router.ppp[0].queue outgoingPackets:count 0
scalar SingleCell_D2D.router.ppp[0].queue outgoingPacketLengths:sum 0
scalar SingleCell_D2D.router.ppp[0].queue incomingPackets:count 0
scalar SingleCell_D2D.router.ppp[0].queue incomingPacketLengths:sum 0
scalar SingleCell_D2D.router.ppp[0].queue droppedPacketsQueueOverflow:count 0
scalar SingleCell_D2D.router.ppp[0].queue droppedPacketLengthsQueueOverflow:sum 0
scalar SingleCell_D2D.router.ppp[0].ppp transmissionState:timeavg 0
scalar SingleCell_D2D.router.ppp[0].ppp rxPkOk:count 0
scalar SingleCell_D2D.router.ppp[0].ppp rxPkOk:sum(packetBytes) 0
scalar SingleCell_D2D.router.ppp[0].ppp txPk:count 0
scalar SingleCell_D2D.router.ppp[0].ppp txPk:sum(packetBytes) 0
scalar SingleCell_D2D.router.ppp[0].ppp rcvdPkFromHl:count 0
scalar SingleCell_D2D.router.ppp[0].ppp rcvdPkFromHl:sum(packetBytes) 0
scalar SingleCell_D2D.router.ppp[0].ppp passedUpPk:count 0
scalar SingleCell_D2D.router.ppp[0].ppp passedUpPk:sum(packetBytes) 0
scalar SingleCell_D2D.router.ppp[0].ppp packetDropIncorrectlyReceived:count 0
scalar SingleCell_D2D.router.ppp[0].ppp packetDropIncorrectlyReceived:sum(packetBytes) 0
scalar SingleCell_D2D.router.ppp[0].ppp packetDropInterfaceDown:count 0
scalar SingleCell_D2D.router.ppp[0].ppp packetDropInterfaceDown:sum(packetBytes) 0
scalar SingleCell_D2D.router.ppp[0] packetDropInterfaceDown:count 0
scalar SingleCell_D2D.router.ppp[0] packetDropInterfaceDown:sum(packetBytes) 0
scalar SingleCell_D2D.router.ppp[0] packetDropNoCarrier:count 0
scalar SingleCell_D2D.router.ppp[0] packetDropNoCarrier:sum(packetBytes) 0
scalar SingleCell_D2D.router.ppp[1].queue queueLength:last 0
scalar SingleCell_D2D.router.ppp[1].queue queueLength:max 0
scalar SingleCell_D2D.router.ppp[1].queue queueLength:timeavg 0
scalar SingleCell_D2D.router.ppp[1].queue queueBitLength:last 0
scalar SingleCell_D2D.router.ppp[1].queue queueBitLength:max 0
scalar SingleCell_D2D.router.ppp[1].queue queueBitLength:timeavg 0
scalar SingleCell_D2D.router.ppp[1].queue outgoingPackets:count 0
scalar SingleCell_D2D.router.ppp[1].queue outgoingPacketLengths:sum 0
scalar SingleCell_D2D.router.ppp[1].queue incomingPackets:count 0
scalar SingleCell_D2D.router.ppp[1].queue incomingPacketLengths:sum 0
scalar SingleCell_D2D.router.ppp[1].queue droppedPacketsQueueOverflow:count 0
scalar SingleCell_D2D.router.ppp[1].queue droppedPacketLengthsQueueOverflow:sum 0
scalar SingleCell_D2D.router.ppp[1].ppp transmissionState:timeavg 0
scalar SingleCell_D2D.router.ppp[1].ppp rxPkOk:count 0
scalar SingleCell_D2D.router.ppp[1].ppp rxPkOk:sum(packetBytes) 0
scalar SingleCell_D2D.router.ppp[1].ppp txPk:count 0
scalar SingleCell_D2D.router.ppp[1].ppp txPk:sum(packetBytes) 0
scalar SingleCell_D2D.router.ppp[1].ppp rcvdPkFromHl:count 0
scalar SingleCell_D2D.router.ppp[1].ppp rcvdPkFromHl:sum(packetBytes) 0
scalar SingleCell_D2D.router.ppp[1].ppp passedUpPk:count 0
scalar SingleCell_D2D.router.ppp[1].ppp passedUpPk:sum(packetBytes) 0
scalar SingleCell_D2D.router.ppp[1].ppp packetDropIncorrectlyReceived:count 0
scalar SingleCell_D2D.router.ppp[1].ppp packetDropIncorrectlyReceived:sum(packetBytes) 0
scalar SingleCell_D2D.router.ppp[1].ppp packetDropInterfaceDown:count 0
scalar SingleCell_D2D.router.ppp[1].ppp packetDropInterfaceDown:sum(packetBytes) 0
scalar SingleCell_D2D.router.ppp[1] packetDropInterfaceDown:count 0
scalar SingleCell_D2D.router.ppp[1] packetDropInterfaceDown:sum(packetBytes) 0
scalar SingleCell_D2D.router.ppp[1] packetDropNoCarrier:count 0
scalar SingleCell_D2D.router.ppp[1] packetDropNoCarrier:sum(packetBytes) 0
scalar SingleCell_D2D.router.ipv4.ip packetDropAddressResolutionFailed:count 0
scalar SingleCell_D2D.router.ipv4.ip packetDropAddressResolutionFailed:sum(packetBytes) 0
scalar SingleCell_D2D.router.ipv4.ip packetDropHopLimitReached:count 0
scalar SingleCell_D2D.router.ipv4.ip packetDropHopLimitReached:sum(packetBytes) 0
scalar SingleCell_D2D.router.ipv4.ip packetDropForwardingDisabled:count 0
scalar SingleCell_D2D.router.ipv4.ip packetDropForwardingDisabled:sum(packetBytes) 0
scalar SingleCell_D2D.router.ipv4.ip packetDropNoInterfaceFound:count 0
scalar SingleCell_D2D.router.ipv4.ip packetDropNoInterfaceFound:sum(packetBytes) 0
scalar SingleCell_D2D.router.ipv4.ip packetDropNoRouteFound:count 0
scalar SingleCell_D2D.router.ipv4.ip packetDropNoRouteFound:sum(packetBytes) 0
scalar SingleCell_D2D.router.ipv4.ip packetDropUndefined:count 0
scalar SingleCell_D2D.router.ipv4.ip packetDropUndefined:sum(packetBytes) 0
scalar SingleCell_D2D.router.ipv4.arp arpResolutionFailed:count 0
scalar SingleCell_D2D.router.ipv4.arp arpResolutionCompleted:count 0
scalar SingleCell_D2D.router.ipv4.arp arpResolutionInitiated:count 0
scalar SingleCell_D2D.router.ipv4.arp arpReplySent:count 0
scalar SingleCell_D2D.router.ipv4.arp arpReplySent:sum(packetBytes) 0
scalar SingleCell_D2D.router.ipv4.arp arpRequestSent:count 0
scalar SingleCell_D2D.router.ipv4.arp arpRequestSent:sum(packetBytes) 0
scalar SingleCell_D2D.pgw.lo[0].lo rcvdPkFromHl:count 0
scalar SingleCell_D2D.pgw.lo[0].lo rcvdPkFromHl:sum(packetBytes) 0
scalar SingleCell_D2D.pgw.lo[0].lo passedUpPk:count 0
scalar SingleCell_D2D.pgw.lo[0].lo passedUpPk:sum(packetBytes) 0
scalar SingleCell_D2D.pgw.lo[0] packetDropInterfaceDown:count 0
scalar SingleCell_D2D.pgw.lo[0] packetDropInterfaceDown:sum(packetBytes) 0
scalar SingleCell_D2D.pgw.lo[0] packetDropNoCarrier:count 0
scalar SingleCell_D2D.pgw.lo[0] packetDropNoCarrier:sum(packetBytes) 0
scalar SingleCell_D2D.pgw.ppp[0].queue queueLength:last 0
scalar SingleCell_D2D.pgw.ppp[0].queue queueLength:max 0
scalar SingleCell_D2D.pgw.ppp[0].queue queueLength:timeavg 0
scalar SingleCell_D2D.pgw.ppp[0].queue queueBitLength:last 0
scalar SingleCell_D2D.pgw.ppp[0].queue queueBitLength:max 0
scalar SingleCell_D2D.pgw.ppp[0].queue queueBitLength:timeavg 0
scalar SingleCell_D2D.pgw.ppp[0].queue outgoingPackets:count 0
scalar SingleCell_D2D.pgw.ppp[0].queue outgoingPacketLengths:sum 0
scalar SingleCell_D2D.pgw.ppp[0].queue incomingPackets:count 0
scalar SingleCell_D2D.pgw.ppp[0].queue incomingPacketLengths:sum 0
scalar SingleCell_D2D.pgw.ppp[0].queue droppedPacketsQueueOverflow:count 0
scalar SingleCell_D2D.pgw.ppp[0].queue droppedPacketLengthsQueueOverflow:sum 0
scalar SingleCell_D2D.pgw.ppp[0].ppp transmissionState:timeavg 0
scalar SingleCell_D2D.pgw.ppp[0].ppp rxPkOk:count 0
scalar SingleCell_D2D.pgw.ppp[0].ppp rxPkOk:sum(packetBytes) 0
scalar SingleCell_D2D.pgw.ppp[0].ppp txPk:count 0
scalar SingleCell_D2D.pgw.ppp[0].ppp txPk:sum(packetBytes) 0
scalar SingleCell_D2D.pgw.ppp[0].ppp rcvdPkFromHl:count 0
scalar SingleCell_D2D.pgw.ppp[0].ppp rcvdPkFromHl:sum(packetBytes) 0
scalar SingleCell_D2D.pgw.ppp[0].ppp passedUpPk:count 0
scalar SingleCell_D2D.pgw.ppp[0].ppp passedUpPk:sum(packetBytes) 0
scalar SingleCell_D2D.pgw.ppp[0].ppp packetDropIncorrectlyReceived:count 0
scalar SingleCell_D2D.pgw.ppp[0].ppp packetDropIncorrectlyReceived:sum(packetBytes) 0
scalar SingleCell_D2D.pgw.ppp[0].ppp packetDropInterfaceDown:count 0
scalar SingleCell_D2D.pgw.ppp[0].ppp packetDropInterfaceDown:sum(packetBytes) 0
scalar SingleCell_D2D.pgw.ppp[0] packetDropInterfaceDown:count 0
scalar SingleCell_D2D.pgw.ppp[0] packetDropInterfaceDown:sum(packetBytes) 0
scalar SingleCell_D2D.pgw.ppp[0] packetDropNoCarrier:count 0
scalar SingleCell_D2D.pgw.ppp[0] packetDropNoCarrier:sum(packetBytes) 0
scalar SingleCell_D2D.pgw.ipv4.ip packetDropAddressResolutionFailed:count 0
scalar SingleCell_D2D.pgw.ipv4.ip packetDropAddressResolutionFailed:sum(packetBytes) 0
scalar SingleCell_D2D.pgw.ipv4.ip packetDropHopLimitReached:count 0
scalar SingleCell_D2D.pgw.ipv4.ip packetDropHopLimitReached:sum(packetBytes) 0
scalar SingleCell_D2D.pgw.ipv4.ip packetDropForwardingDisabled:count 0
scalar SingleCell_D2D.pgw.ipv4.ip packetDropForwardingDisabled:sum(packetBytes) 0
scalar SingleCell_D2D.pgw.ipv4.ip packetDropNoInterfaceFound:count 0
scalar SingleCell_D2D.pgw.ipv4.ip packetDropNoInterfaceFound:sum(packetBytes) 0
scalar SingleCell_D2D.pgw.ipv4.ip packetDropNoRouteFound:count 0
scalar SingleCell_D2D.pgw.ipv4.ip packetDropNoRouteFound:sum(packetBytes) 0
scalar SingleCell_D2D.pgw.ipv4.ip packetDropUndefined:count 0
scalar SingleCell_D2D.pgw.ipv4.ip packetDropUndefined:sum(packetBytes) 0
scalar SingleCell_D2D.pgw.ipv4.arp arpResolutionFailed:count 0
scalar SingleCell_D2D.pgw.ipv4.arp arpResolutionCompleted:count 0
scalar SingleCell_D2D.pgw.ipv4.arp arpResolutionInitiated:count 0
scalar SingleCell_D2D.pgw.ipv4.arp arpReplySent:count 0
scalar SingleCell_D2D.pgw.ipv4.arp arpReplySent:sum(packetBytes) 0
scalar SingleCell_D2D.pgw.ipv4.arp arpRequestSent:count 0
scalar SingleCell_D2D.pgw.ipv4.arp arpRequestSent:sum(packetBytes) 0
scalar SingleCell_D2D.pgw.udp packetReceived:count 0
scalar SingleCell_D2D.pgw.udp packetReceived:sum(packetBytes) 0
scalar SingleCell_D2D.pgw.udp packetSent:count 0
scalar SingleCell_D2D.pgw.udp packetSent:sum(packetBytes) 0
scalar SingleCell_D2D.pgw.udp passedUpPk:count 0
scalar SingleCell_D2D.pgw.udp droppedPkWrongPort:count 0
scalar SingleCell_D2D.pgw.udp droppedPkBadChecksum:count 0
scalar SingleCell_D2D.pgw.dnPpp.queue queueLength:last 0
scalar SingleCell_D2D.pgw.dnPpp.queue queueLength:max 0
scalar SingleCell_D2D.pgw.dnPpp.queue queueLength:timeavg 0
scalar SingleCell_D2D.pgw.dnPpp.queue queueBitLength:last 0
scalar SingleCell_D2D.pgw.dnPpp.queue queueBitLength:max 0
scalar SingleCell_D2D.pgw.dnPpp.queue queueBitLength:timeavg 0
scalar SingleCell_D2D.pgw.dnPpp.queue outgoingPackets:count 0
scalar SingleCell_D2D.pgw.dnPpp.queue outgoingPacketLengths:sum 0
scalar SingleCell_D2D.pgw.dnPpp.queue incomingPackets:count 0
scalar SingleCell_D2D.pgw.dnPpp.queue incomingPacketLengths:sum 0
scalar SingleCell_D2D.pgw.dnPpp.queue droppedPacketsQueueOverflow:count 0
scalar SingleCell_D2D.pgw.dnPpp.queue droppedPacketLengthsQueueOverflow:sum 0
scalar SingleCell_D2D.pgw.dnPpp.ppp transmissionState:timeavg 0
scalar SingleCell_D2D.pgw.dnPpp.ppp rxPkOk:count 0
scalar SingleCell_D2D.pgw.dnPpp.ppp rxPkOk:sum(packetBytes) 0
scalar SingleCell_D2D.pgw.dnPpp.ppp txPk:count 0
scalar SingleCell_D2D.pgw.dnPpp.ppp txPk:sum(packetBytes) 0
scalar SingleCell_D2D.pgw.dnPpp.ppp rcvdPkFromHl:count 0
scalar SingleCell_D2D.pgw.dnPpp.ppp rcvdPkFromHl:sum(packetBytes) 0
scalar SingleCell_D2D.pgw.dnPpp.ppp passedUpPk:count 0
scalar SingleCell_D2D.pgw.dnPpp.ppp passedUpPk:sum(packetBytes) 0
scalar SingleCell_D2D.pgw.dnPpp.ppp packetDropIncorrectlyReceived:count 0
scalar SingleCell_D2D.pgw.dnPpp.ppp packetDropIncorrectlyReceived:sum(packetBytes) 0
scalar SingleCell_D2D.pgw.dnPpp.ppp packetDropInterfaceDown:count 0
scalar SingleCell_D2D.pgw.dnPpp.ppp packetDropInterfaceDown:sum(packetBytes) 0
scalar SingleCell_D2D.pgw.dnPpp packetDropInterfaceDown:count 0
scalar SingleCell_D2D.pgw.dnPpp packetDropInterfaceDown:sum(packetBytes) 0
scalar SingleCell_D2D.pgw.dnPpp packetDropNoCarrier:count 0
scalar SingleCell_D2D.pgw.dnPpp packetDropNoCarrier:sum(packetBytes) 0
scalar SingleCell_D2D.eNB.cellularNic.rlcMux rlcCellThroughputD2D:simu5g_rateavg -nan
scalar SingleCell_D2D.eNB.cellularNic.rlcMux rlcPduThroughputD2D:simu5g_rateavg -nan
scalar SingleCell_D2D.eNB.cellularNic.rlcMux rlcPduDelayD2D:mean -nan
scalar SingleCell_D2D.eNB.cellularNic.rlcMux rlcThroughputD2D:simu5g_rateavg -nan
scalar SingleCell_D2D.eNB.cellularNic.rlcMux rlcDelayD2D:mean -nan
scalar SingleCell_D2D.eNB.cellularNic.rlcMux rlcCellThroughputUl:simu5g_rateavg 1585304.5702860418
scalar SingleCell_D2D.eNB.cellularNic.rlcMux rlcCellThroughputDl:simu5g_rateavg 1585864.2071656068
scalar SingleCell_D2D.eNB.cellularNic.rlcMux rlcPduThroughputUl:simu5g_rateavg -nan
scalar SingleCell_D2D.eNB.cellularNic.rlcMux rlcPduThroughputDl:simu5g_rateavg -nan
scalar SingleCell_D2D.eNB.cellularNic.rlcMux rlcPduDelayUl:mean -nan
scalar SingleCell_D2D.eNB.cellularNic.rlcMux rlcPduDelayDl:mean -nan
scalar SingleCell_D2D.eNB.cellularNic.rlcMux rlcThroughputUl:simu5g_rateavg -nan
scalar SingleCell_D2D.eNB.cellularNic.rlcMux rlcThroughputDl:simu5g_rateavg -nan
scalar SingleCell_D2D.eNB.cellularNic.rlcMux rlcDelayUl:mean -nan
scalar SingleCell_D2D.eNB.cellularNic.rlcMux rlcDelayDl:mean -nan
scalar SingleCell_D2D.eNB.cellularNic.rlcMux sentPacketToLowerLayer:count 21258
scalar SingleCell_D2D.eNB.cellularNic.rlcMux sentPacketToLowerLayer:sum(packetBytes) 9993730
scalar SingleCell_D2D.eNB.cellularNic.rlcMux receivedPacketFromLowerLayer:count 7072
scalar SingleCell_D2D.eNB.cellularNic.rlcMux receivedPacketFromLowerLayer:sum(packetBytes) 5006981
scalar SingleCell_D2D.eNB.cellularNic.mac avgServedBlocksUl:mean 11.5474
scalar SingleCell_D2D.eNB.cellularNic.mac avgServedBlocksDl:mean 11.6356
scalar SingleCell_D2D.eNB.cellularNic.mac harqTxAttemptsUl:mean -nan
scalar SingleCell_D2D.eNB.cellularNic.mac harqTxAttemptsDl:mean -nan
scalar SingleCell_D2D.eNB.cellularNic.mac harqErrorRate_4th_Ul:mean -nan
scalar SingleCell_D2D.eNB.cellularNic.mac harqErrorRate_4th_Dl:mean -nan
scalar SingleCell_D2D.eNB.cellularNic.mac harqErrorRate_3rd_Ul:mean -nan
scalar SingleCell_D2D.eNB.cellularNic.mac harqErrorRate_3rd_Dl:mean -nan
scalar SingleCell_D2D.eNB.cellularNic.mac harqErrorRate_2nd_Ul:mean -nan
scalar SingleCell_D2D.eNB.cellularNic.mac harqErrorRate_2nd_Dl:mean -nan
scalar SingleCell_D2D.eNB.cellularNic.mac harqErrorRate_1st_Ul:mean -nan
scalar SingleCell_D2D.eNB.cellularNic.mac harqErrorRate_1st_Dl:mean -nan
scalar SingleCell_D2D.eNB.cellularNic.mac harqErrorRateUl:mean -nan
scalar SingleCell_D2D.eNB.cellularNic.mac harqErrorRateDl:mean -nan
scalar SingleCell_D2D.eNB.cellularNic.mac macCellPacketLossUl:mean 0
scalar SingleCell_D2D.eNB.cellularNic.mac macCellPacketLossDl:mean 0
scalar SingleCell_D2D.eNB.cellularNic.mac macPacketLossUl:mean -nan
scalar SingleCell_D2D.eNB.cellularNic.mac macPacketLossDl:mean -nan
scalar SingleCell_D2D.eNB.cellularNic.mac macThroughputUl:simu5g_rateavg -nan
scalar SingleCell_D2D.eNB.cellularNic.mac macThroughputDl:simu5g_rateavg -nan
scalar SingleCell_D2D.eNB.cellularNic.mac macDelayUl:mean -nan
scalar SingleCell_D2D.eNB.cellularNic.mac macDelayDl:mean -nan
scalar SingleCell_D2D.eNB.cellularNic.mac macCellThroughputUl:simu5g_rateavg 1593631.722442386
scalar SingleCell_D2D.eNB.cellularNic.mac macCellThroughputDl:simu5g_rateavg 1594293.7536887028
scalar SingleCell_D2D.eNB.cellularNic.mac sentPacketToLowerLayer:count 23211
scalar SingleCell_D2D.eNB.cellularNic.mac sentPacketToLowerLayer:sum(packetBytes) 5029725
scalar SingleCell_D2D.eNB.cellularNic.mac sentPacketToUpperLayer:count 12185
scalar SingleCell_D2D.eNB.cellularNic.mac sentPacketToUpperLayer:sum(packetBytes) 5012094
scalar SingleCell_D2D.eNB.cellularNic.mac receivedPacketFromLowerLayer:count 24464
scalar SingleCell_D2D.eNB.cellularNic.mac receivedPacketFromLowerLayer:sum(packetBytes) 5038775
scalar SingleCell_D2D.eNB.cellularNic.mac receivedPacketFromUpperLayer:count 21258
scalar SingleCell_D2D.eNB.cellularNic.mac receivedPacketFromUpperLayer:sum(packetBytes) 9993730
scalar SingleCell_D2D.eNB.cellularNic.mac macBufferOverFlowD2D:mean -nan
scalar SingleCell_D2D.eNB.cellularNic.mac macBufferOverFlowUl:mean -nan
scalar SingleCell_D2D.eNB.cellularNic.mac macBufferOverFlowDl:mean -nan
scalar SingleCell_D2D.eNB.cellularNic.channelModel[0] measuredSinrUl:mean -nan
scalar SingleCell_D2D.eNB.cellularNic.channelModel[0] measuredSinrDl:mean -nan
scalar SingleCell_D2D.eNB.cellularNic.channelModel[0] rcvdSinrD2D:mean -nan
scalar SingleCell_D2D.eNB.cellularNic.channelModel[0] rcvdSinrUl:mean -nan
scalar SingleCell_D2D.eNB.cellularNic.channelModel[0] rcvdSinrDl:mean -nan
scalar SingleCell_D2D.eNB.cellularNic packetDropInterfaceDown:count 0
scalar SingleCell_D2D.eNB.cellularNic packetDropInterfaceDown:sum(packetBytes) 0
scalar SingleCell_D2D.eNB.cellularNic packetDropNoCarrier:count 0
scalar SingleCell_D2D.eNB.cellularNic packetDropNoCarrier:sum(packetBytes) 0
scalar SingleCell_D2D.eNB.pppIf.queue queueLength:last 0
scalar SingleCell_D2D.eNB.pppIf.queue queueLength:max 0
scalar SingleCell_D2D.eNB.pppIf.queue queueLength:timeavg 0
scalar SingleCell_D2D.eNB.pppIf.queue queueBitLength:last 0
scalar SingleCell_D2D.eNB.pppIf.queue queueBitLength:max 0
scalar SingleCell_D2D.eNB.pppIf.queue queueBitLength:timeavg 0
scalar SingleCell_D2D.eNB.pppIf.queue outgoingPackets:count 0
scalar SingleCell_D2D.eNB.pppIf.queue outgoingPacketLengths:sum 0
scalar SingleCell_D2D.eNB.pppIf.queue incomingPackets:count 0
scalar SingleCell_D2D.eNB.pppIf.queue incomingPacketLengths:sum 0
scalar SingleCell_D2D.eNB.pppIf.queue droppedPacketsQueueOverflow:count 0
scalar SingleCell_D2D.eNB.pppIf.queue droppedPacketLengthsQueueOverflow:sum 0
scalar SingleCell_D2D.eNB.pppIf.ppp transmissionState:timeavg 0
scalar SingleCell_D2D.eNB.pppIf.ppp rxPkOk:count 0
scalar SingleCell_D2D.eNB.pppIf.ppp rxPkOk:sum(packetBytes) 0
scalar SingleCell_D2D.eNB.pppIf.ppp txPk:count 0
scalar SingleCell_D2D.eNB.pppIf.ppp txPk:sum(packetBytes) 0
scalar SingleCell_D2D.eNB.pppIf.ppp rcvdPkFromHl:count 0
scalar SingleCell_D2D.eNB.pppIf.ppp rcvdPkFromHl:sum(packetBytes) 0
scalar SingleCell_D2D.eNB.pppIf.ppp passedUpPk:count 0
scalar SingleCell_D2D.eNB.pppIf.ppp passedUpPk:sum(packetBytes) 0
scalar SingleCell_D2D.eNB.pppIf.ppp packetDropIncorrectlyReceived:count 0
scalar SingleCell_D2D.eNB.pppIf.ppp packetDropIncorrectlyReceived:sum(packetBytes) 0
scalar SingleCell_D2D.eNB.pppIf.ppp packetDropInterfaceDown:count 0
scalar SingleCell_D2D.eNB.pppIf.ppp packetDropInterfaceDown:sum(packetBytes) 0
scalar SingleCell_D2D.eNB.pppIf packetDropInterfaceDown:count 0
scalar SingleCell_D2D.eNB.pppIf packetDropInterfaceDown:sum(packetBytes) 0
scalar SingleCell_D2D.eNB.pppIf packetDropNoCarrier:count 0
scalar SingleCell_D2D.eNB.pppIf packetDropNoCarrier:sum(packetBytes) 0
scalar SingleCell_D2D.eNB.pppMEHostIf.queue queueLength:last 0
scalar SingleCell_D2D.eNB.pppMEHostIf.queue queueLength:max 0
scalar SingleCell_D2D.eNB.pppMEHostIf.queue queueLength:timeavg 0
scalar SingleCell_D2D.eNB.pppMEHostIf.queue queueBitLength:last 0
scalar SingleCell_D2D.eNB.pppMEHostIf.queue queueBitLength:max 0
scalar SingleCell_D2D.eNB.pppMEHostIf.queue queueBitLength:timeavg 0
scalar SingleCell_D2D.eNB.pppMEHostIf.queue outgoingPackets:count 0
scalar SingleCell_D2D.eNB.pppMEHostIf.queue outgoingPacketLengths:sum 0
scalar SingleCell_D2D.eNB.pppMEHostIf.queue incomingPackets:count 0
scalar SingleCell_D2D.eNB.pppMEHostIf.queue incomingPacketLengths:sum 0
scalar SingleCell_D2D.eNB.pppMEHostIf.queue droppedPacketsQueueOverflow:count 0
scalar SingleCell_D2D.eNB.pppMEHostIf.queue droppedPacketLengthsQueueOverflow:sum 0
scalar SingleCell_D2D.eNB.pppMEHostIf.ppp transmissionState:timeavg 0
scalar SingleCell_D2D.eNB.pppMEHostIf.ppp rxPkOk:count 0
scalar SingleCell_D2D.eNB.pppMEHostIf.ppp rxPkOk:sum(packetBytes) 0
scalar SingleCell_D2D.eNB.pppMEHostIf.ppp txPk:count 0
scalar SingleCell_D2D.eNB.pppMEHostIf.ppp txPk:sum(packetBytes) 0
scalar SingleCell_D2D.eNB.pppMEHostIf.ppp rcvdPkFromHl:count 0
scalar SingleCell_D2D.eNB.pppMEHostIf.ppp rcvdPkFromHl:sum(packetBytes) 0
scalar SingleCell_D2D.eNB.pppMEHostIf.ppp passedUpPk:count 0
scalar SingleCell_D2D.eNB.pppMEHostIf.ppp passedUpPk:sum(packetBytes) 0
scalar SingleCell_D2D.eNB.pppMEHostIf.ppp packetDropIncorrectlyReceived:count 0
scalar SingleCell_D2D.eNB.pppMEHostIf.ppp packetDropIncorrectlyReceived:sum(packetBytes) 0
scalar SingleCell_D2D.eNB.pppMEHostIf.ppp packetDropInterfaceDown:count 0
scalar SingleCell_D2D.eNB.pppMEHostIf.ppp packetDropInterfaceDown:sum(packetBytes) 0
scalar SingleCell_D2D.eNB.pppMEHostIf packetDropInterfaceDown:count 0
scalar SingleCell_D2D.eNB.pppMEHostIf packetDropInterfaceDown:sum(packetBytes) 0
scalar SingleCell_D2D.eNB.pppMEHostIf packetDropNoCarrier:count 0
scalar SingleCell_D2D.eNB.pppMEHostIf packetDropNoCarrier:sum(packetBytes) 0
scalar SingleCell_D2D.eNB.ipv4.ip packetDropAddressResolutionFailed:count 0
scalar SingleCell_D2D.eNB.ipv4.ip packetDropAddressResolutionFailed:sum(packetBytes) 0
scalar SingleCell_D2D.eNB.ipv4.ip packetDropHopLimitReached:count 0
scalar SingleCell_D2D.eNB.ipv4.ip packetDropHopLimitReached:sum(packetBytes) 0
scalar SingleCell_D2D.eNB.ipv4.ip packetDropForwardingDisabled:count 0
scalar SingleCell_D2D.eNB.ipv4.ip packetDropForwardingDisabled:sum(packetBytes) 0
scalar SingleCell_D2D.eNB.ipv4.ip packetDropNoInterfaceFound:count 0
scalar SingleCell_D2D.eNB.ipv4.ip packetDropNoInterfaceFound:sum(packetBytes) 0
scalar SingleCell_D2D.eNB.ipv4.ip packetDropNoRouteFound:count 0
scalar SingleCell_D2D.eNB.ipv4.ip packetDropNoRouteFound:sum(packetBytes) 0
scalar SingleCell_D2D.eNB.ipv4.ip packetDropUndefined:count 0
scalar SingleCell_D2D.eNB.ipv4.ip packetDropUndefined:sum(packetBytes) 0
scalar SingleCell_D2D.eNB.ipv4.arp arpResolutionFailed:count 0
scalar SingleCell_D2D.eNB.ipv4.arp arpResolutionCompleted:count 0
scalar SingleCell_D2D.eNB.ipv4.arp arpResolutionInitiated:count 0
scalar SingleCell_D2D.eNB.ipv4.arp arpReplySent:count 0
scalar SingleCell_D2D.eNB.ipv4.arp arpReplySent:sum(packetBytes) 0
scalar SingleCell_D2D.eNB.ipv4.arp arpRequestSent:count 0
scalar SingleCell_D2D.eNB.ipv4.arp arpRequestSent:sum(packetBytes) 0
scalar SingleCell_D2D.eNB.udp packetReceived:count 0
scalar SingleCell_D2D.eNB.udp packetReceived:sum(packetBytes) 0
scalar SingleCell_D2D.eNB.udp packetSent:count 0
scalar SingleCell_D2D.eNB.udp packetSent:sum(packetBytes) 0
scalar SingleCell_D2D.eNB.udp passedUpPk:count 0
scalar SingleCell_D2D.eNB.udp droppedPkWrongPort:count 0
scalar SingleCell_D2D.eNB.udp droppedPkBadChecksum:count 0
scalar SingleCell_D2D.ueD2DTx[0].lo[0].lo rcvdPkFromHl:count 0
scalar SingleCell_D2D.ueD2DTx[0].lo[0].lo rcvdPkFromHl:sum(packetBytes) 0
scalar SingleCell_D2D.ueD2DTx[0].lo[0].lo passedUpPk:count 0
scalar SingleCell_D2D.ueD2DTx[0].lo[0].lo passedUpPk:sum(packetBytes) 0
scalar SingleCell_D2D.ueD2DTx[0].lo[0] packetDropInterfaceDown:count 0
scalar SingleCell_D2D.ueD2DTx[0].lo[0] packetDropInterfaceDown:sum(packetBytes) 0
scalar SingleCell_D2D.ueD2DTx[0].lo[0] packetDropNoCarrier:count 0
scalar SingleCell_D2D.ueD2DTx[0].lo[0] packetDropNoCarrier:sum(packetBytes) 0
scalar SingleCell_D2D.ueD2DTx[0].cellularNic.rlcMux rlcCellThroughputD2D:simu5g_rateavg -nan
scalar SingleCell_D2D.ueD2DTx[0].cellularNic.rlcMux rlcPduThroughputD2D:simu5g_rateavg -nan
scalar SingleCell_D2D.ueD2DTx[0].cellularNic.rlcMux rlcPduDelayD2D:mean -nan
scalar SingleCell_D2D.ueD2DTx[0].cellularNic.rlcMux rlcThroughputD2D:simu5g_rateavg -nan
scalar SingleCell_D2D.ueD2DTx[0].cellularNic.rlcMux rlcDelayD2D:mean -nan
scalar SingleCell_D2D.ueD2DTx[0].cellularNic.rlcMux rlcCellThroughputUl:simu5g_rateavg -nan
scalar SingleCell_D2D.ueD2DTx[0].cellularNic.rlcMux rlcCellThroughputDl:simu5g_rateavg -nan
scalar SingleCell_D2D.ueD2DTx[0].cellularNic.rlcMux rlcPduThroughputUl:simu5g_rateavg 0
scalar SingleCell_D2D.ueD2DTx[0].cellularNic.rlcMux rlcPduThroughputDl:simu5g_rateavg 0
scalar SingleCell_D2D.ueD2DTx[0].cellularNic.rlcMux rlcPduDelayUl:mean 0.0040000000000000027
scalar SingleCell_D2D.ueD2DTx[0].cellularNic.rlcMux rlcPduDelayDl:mean 0.0040000000000000027
scalar SingleCell_D2D.ueD2DTx[0].cellularNic.rlcMux rlcThroughputUl:simu5g_rateavg 145339.06802459384
scalar SingleCell_D2D.ueD2DTx[0].cellularNic.rlcMux rlcThroughputDl:simu5g_rateavg 10204.633106881025
scalar SingleCell_D2D.ueD2DTx[0].cellularNic.rlcMux rlcDelayUl:mean 0.017782477680924384
scalar SingleCell_D2D.ueD2DTx[0].cellularNic.rlcMux rlcDelayDl:mean 0.01729887920298841
scalar SingleCell_D2D.ueD2DTx[0].cellularNic.rlcMux sentPacketToLowerLayer:count 2457
scalar SingleCell_D2D.ueD2DTx[0].cellularNic.rlcMux sentPacketToLowerLayer:sum(packetBytes) 1870170
scalar SingleCell_D2D.ueD2DTx[0].cellularNic.rlcMux receivedPacketFromLowerLayer:count 578
scalar SingleCell_D2D.ueD2DTx[0].cellularNic.rlcMux receivedPacketFromLowerLayer:sum(packetBytes) 67006
scalar SingleCell_D2D.ueD2DTx[0].cellularNic.mac harqTxAttemptsUl:mean 1
scalar SingleCell_D2D.ueD2DTx[0].cellularNic.mac harqTxAttemptsDl:mean 1
scalar SingleCell_D2D.ueD2DTx[0].cellularNic.mac harqErrorRate_4th_Ul:mean -nan
scalar SingleCell_D2D.ueD2DTx[0].cellularNic.mac harqErrorRate_4th_Dl:mean -nan
scalar SingleCell_D2D.ueD2DTx[0].cellularNic.mac harqErrorRate_3rd_Ul:mean -nan
scalar SingleCell_D2D.ueD2DTx[0].cellularNic.mac harqErrorRate_3rd_Dl:mean -nan
scalar SingleCell_D2D.ueD2DTx[0].cellularNic.mac harqErrorRate_2nd_Ul:mean -nan
scalar SingleCell_D2D.ueD2DTx[0].cellularNic.mac harqErrorRate_2nd_Dl:mean -nan
scalar SingleCell_D2D.ueD2DTx[0].cellularNic.mac harqErrorRate_1st_Ul:mean 0
scalar SingleCell_D2D.ueD2DTx[0].cellularNic.mac harqErrorRate_1st_Dl:mean 0
scalar SingleCell_D2D.ueD2DTx[0].cellularNic.mac harqErrorRateUl:mean 0
scalar SingleCell_D2D.ueD2DTx[0].cellularNic.mac harqErrorRateDl:mean 0
scalar SingleCell_D2D.ueD2DTx[0].cellularNic.mac macCellPacketLossUl:mean -nan
scalar SingleCell_D2D.ueD2DTx[0].cellularNic.mac macCellPacketLossDl:mean -nan
scalar SingleCell_D2D.ueD2DTx[0].cellularNic.mac macPacketLossUl:mean 0
scalar SingleCell_D2D.ueD2DTx[0].cellularNic.mac macPacketLossDl:mean 0
scalar SingleCell_D2D.ueD2DTx[0].cellularNic.mac macThroughputUl:simu5g_rateavg 146346.61082014319
scalar SingleCell_D2D.ueD2DTx[0].cellularNic.mac macThroughputDl:simu5g_rateavg 10596.412703524849
scalar SingleCell_D2D.ueD2DTx[0].cellularNic.mac macDelayUl:mean 0.0040000000000000027
scalar SingleCell_D2D.ueD2DTx[0].cellularNic.mac macDelayDl:mean 0.0040000000000000027
scalar SingleCell_D2D.ueD2DTx[0].cellularNic.mac macCellThroughputUl:simu5g_rateavg -nan
scalar SingleCell_D2D.ueD2DTx[0].cellularNic.mac macCellThroughputDl:simu5g_rateavg -nan
scalar SingleCell_D2D.ueD2DTx[0].cellularNic.mac sentPacketToLowerLayer:count 1813
scalar SingleCell_D2D.ueD2DTx[0].cellularNic.mac sentPacketToLowerLayer:sum(packetBytes) 938570
scalar SingleCell_D2D.ueD2DTx[0].cellularNic.mac sentPacketToUpperLayer:count 1414
scalar SingleCell_D2D.ueD2DTx[0].cellularNic.mac sentPacketToUpperLayer:sum(packetBytes) 67842
scalar SingleCell_D2D.ueD2DTx[0].cellularNic.mac receivedPacketFromLowerLayer:count 2649
scalar SingleCell_D2D.ueD2DTx[0].cellularNic.mac receivedPacketFromLowerLayer:sum(packetBytes) 70318
scalar SingleCell_D2D.ueD2DTx[0].cellularNic.mac receivedPacketFromUpperLayer:count 2457
scalar SingleCell_D2D.ueD2DTx[0].cellularNic.mac receivedPacketFromUpperLayer:sum(packetBytes) 1870170
scalar SingleCell_D2D.ueD2DTx[0].cellularNic.mac macBufferOverFlowD2D:mean -nan
scalar SingleCell_D2D.ueD2DTx[0].cellularNic.mac macBufferOverFlowUl:mean -nan
scalar SingleCell_D2D.ueD2DTx[0].cellularNic.mac macBufferOverFlowDl:mean -nan
scalar SingleCell_D2D.ueD2DTx[0].cellularNic.phy distance:mean -nan
scalar SingleCell_D2D.ueD2DTx[0].cellularNic.phy averageCqiUl:mean 14
scalar SingleCell_D2D.ueD2DTx[0].cellularNic.phy averageCqiUl:count 836
scalar SingleCell_D2D.ueD2DTx[0].cellularNic.phy averageCqiDl:mean 15
scalar SingleCell_D2D.ueD2DTx[0].cellularNic.phy averageCqiDl:count 579
scalar SingleCell_D2D.ueD2DTx[0].cellularNic.channelModel[0] measuredSinrUl:mean 57.056948256397121
scalar SingleCell_D2D.ueD2DTx[0].cellularNic.channelModel[0] measuredSinrDl:mean 66.826534357378165
scalar SingleCell_D2D.ueD2DTx[0].cellularNic.channelModel[0] rcvdSinrD2D:mean -nan
scalar SingleCell_D2D.ueD2DTx[0].cellularNic.channelModel[0] rcvdSinrUl:mean 57.101641303923351
scalar SingleCell_D2D.ueD2DTx[0].cellularNic.channelModel[0] rcvdSinrDl:mean 62.790403218216134
scalar SingleCell_D2D.ueD2DTx[0].cellularNic packetDropInterfaceDown:count 0
scalar SingleCell_D2D.ueD2DTx[0].cellularNic packetDropInterfaceDown:sum(packetBytes) 0
scalar SingleCell_D2D.ueD2DTx[0].cellularNic packetDropNoCarrier:count 0
scalar SingleCell_D2D.ueD2DTx[0].cellularNic packetDropNoCarrier:sum(packetBytes) 0
scalar SingleCell_D2D.ueD2DTx[0].encap pauseSent:count 0
scalar SingleCell_D2D.ueD2DTx[0].encap pauseSent:sum 0
scalar SingleCell_D2D.ueD2DTx[0].encap decapPk:count 0
scalar SingleCell_D2D.ueD2DTx[0].encap decapPk:sum(packetBytes) 0
scalar SingleCell_D2D.ueD2DTx[0].encap encapPk:count 0
scalar SingleCell_D2D.ueD2DTx[0].encap encapPk:sum(packetBytes) 0
scalar SingleCell_D2D.ueD2DTx[0].ipv4.ip packetDropAddressResolutionFailed:count 0
scalar SingleCell_D2D.ueD2DTx[0].ipv4.ip packetDropAddressResolutionFailed:sum(packetBytes) 0
scalar SingleCell_D2D.ueD2DTx[0].ipv4.ip packetDropHopLimitReached:count 0
scalar SingleCell_D2D.ueD2DTx[0].ipv4.ip packetDropHopLimitReached:sum(packetBytes) 0
scalar SingleCell_D2D.ueD2DTx[0].ipv4.ip packetDropForwardingDisabled:count 0
scalar SingleCell_D2D.ueD2DTx[0].ipv4.ip packetDropForwardingDisabled:sum(packetBytes) 0
scalar SingleCell_D2D.ueD2DTx[0].ipv4.ip packetDropNoInterfaceFound:count 0
scalar SingleCell_D2D.ueD2DTx[0].ipv4.ip packetDropNoInterfaceFound:sum(packetBytes) 0
scalar SingleCell_D2D.ueD2DTx[0].ipv4.ip packetDropNoRouteFound:count 0
scalar SingleCell_D2D.ueD2DTx[0].ipv4.ip packetDropNoRouteFound:sum(packetBytes) 0
scalar SingleCell_D2D.ueD2DTx[0].ipv4.ip packetDropUndefined:count 0
scalar SingleCell_D2D.ueD2DTx[0].ipv4.ip packetDropUndefined:sum(packetBytes) 0
scalar SingleCell_D2D.ueD2DTx[0].ipv4.arp arpResolutionFailed:count 0
scalar SingleCell_D2D.ueD2DTx[0].ipv4.arp arpResolutionCompleted:count 0
scalar SingleCell_D2D.ueD2DTx[0].ipv4.arp arpResolutionInitiated:count 0
scalar SingleCell_D2D.ueD2DTx[0].ipv4.arp arpReplySent:count 0
scalar SingleCell_D2D.ueD2DTx[0].ipv4.arp arpReplySent:sum(packetBytes) 0
scalar SingleCell_D2D.ueD2DTx[0].ipv4.arp arpRequestSent:count 0
scalar SingleCell_D2D.ueD2DTx[0].ipv4.arp arpRequestSent:sum(packetBytes) 0
scalar SingleCell_D2D.ueD2DTx[0].udp packetReceived:count 0
scalar SingleCell_D2D.ueD2DTx[0].udp packetReceived:sum(packetBytes) 0
scalar SingleCell_D2D.ueD2DTx[0].udp packetSent:count 0
scalar SingleCell_D2D.ueD2DTx[0].udp packetSent:sum(packetBytes) 0
scalar SingleCell_D2D.ueD2DTx[0].udp passedUpPk:count 0
scalar SingleCell_D2D.ueD2DTx[0].udp droppedPkWrongPort:count 0
scalar SingleCell_D2D.ueD2DTx[0].udp droppedPkBadChecksum:count 0
scalar SingleCell_D2D.ueD2DTx[0].app[0] bytesRcvd 0
scalar SingleCell_D2D.ueD2DTx[0].app[0] bytesSent 1073741824
scalar SingleCell_D2D.ueD2DTx[0].app[0] packetReceived:count 0
scalar SingleCell_D2D.ueD2DTx[0].app[0] packetReceived:sum(packetBytes) 0
scalar SingleCell_D2D.ueD2DTx[0].app[0] packetSent:count 1
scalar SingleCell_D2D.ueD2DTx[0].app[0] packetSent:sum(packetBytes) 1073741824
scalar SingleCell_D2D.ueD2DTx[1].lo[0].lo rcvdPkFromHl:count 0
scalar SingleCell_D2D.ueD2DTx[1].lo[0].lo rcvdPkFromHl:sum(packetBytes) 0
scalar SingleCell_D2D.ueD2DTx[1].lo[0].lo passedUpPk:count 0
scalar SingleCell_D2D.ueD2DTx[1].lo[0].lo passedUpPk:sum(packetBytes) 0
scalar SingleCell_D2D.ueD2DTx[1].lo[0] packetDropInterfaceDown:count 0
scalar SingleCell_D2D.ueD2DTx[1].lo[0] packetDropInterfaceDown:sum(packetBytes) 0
scalar SingleCell_D2D.ueD2DTx[1].lo[0] packetDropNoCarrier:count 0
scalar SingleCell_D2D.ueD2DTx[1].lo[0] packetDropNoCarrier:sum(packetBytes) 0
scalar SingleCell_D2D.ueD2DTx[1].cellularNic.rlcMux rlcCellThroughputD2D:simu5g_rateavg -nan
scalar SingleCell_D2D.ueD2DTx[1].cellularNic.rlcMux rlcPduThroughputD2D:simu5g_rateavg -nan
scalar SingleCell_D2D.ueD2DTx[1].cellularNic.rlcMux rlcPduDelayD2D:mean -nan
scalar SingleCell_D2D.ueD2DTx[1].cellularNic.rlcMux rlcThroughputD2D:simu5g_rateavg -nan
scalar SingleCell_D2D.ueD2DTx[1].cellularNic.rlcMux rlcDelayD2D:mean -nan
scalar SingleCell_D2D.ueD2DTx[1].cellularNic.rlcMux rlcCellThroughputUl:simu5g_rateavg -nan
scalar SingleCell_D2D.ueD2DTx[1].cellularNic.rlcMux rlcCellThroughputDl:simu5g_rateavg -nan
scalar SingleCell_D2D.ueD2DTx[1].cellularNic.rlcMux rlcPduThroughputUl:simu5g_rateavg 0
scalar SingleCell_D2D.ueD2DTx[1].cellularNic.rlcMux rlcPduThroughputDl:simu5g_rateavg 0
scalar SingleCell_D2D.ueD2DTx[1].cellularNic.rlcMux rlcPduDelayUl:mean 0.0040000000000000027
scalar SingleCell_D2D.ueD2DTx[1].cellularNic.rlcMux rlcPduDelayDl:mean 0.0040000000000000027
scalar SingleCell_D2D.ueD2DTx[1].cellularNic.rlcMux rlcThroughputUl:simu5g_rateavg 147991.84094676835
scalar SingleCell_D2D.ueD2DTx[1].cellularNic.rlcMux rlcThroughputDl:simu5g_rateavg 10391.301647027123
scalar SingleCell_D2D.ueD2DTx[1].cellularNic.rlcMux rlcDelayUl:mean 0.018067649190762848
scalar SingleCell_D2D.ueD2DTx[1].cellularNic.rlcMux rlcDelayDl:mean 0.017332084893882271
scalar SingleCell_D2D.ueD2DTx[1].cellularNic.rlcMux sentPacketToLowerLayer:count 2495
scalar SingleCell_D2D.ueD2DTx[1].cellularNic.rlcMux sentPacketToLowerLayer:sum(packetBytes) 1860037
scalar SingleCell_D2D.ueD2DTx[1].cellularNic.rlcMux receivedPacketFromLowerLayer:count 562
scalar SingleCell_D2D.ueD2DTx[1].cellularNic.rlcMux receivedPacketFromLowerLayer:sum(packetBytes) 66810
scalar SingleCell_D2D.ueD2DTx[1].cellularNic.mac harqTxAttemptsUl:mean 1
scalar SingleCell_D2D.ueD2DTx[1].cellularNic.mac harqTxAttemptsDl:mean 1
scalar SingleCell_D2D.ueD2DTx[1].cellularNic.mac harqErrorRate_4th_Ul:mean -nan
scalar SingleCell_D2D.ueD2DTx[1].cellularNic.mac harqErrorRate_4th_Dl:mean -nan
scalar SingleCell_D2D.ueD2DTx[1].cellularNic.mac harqErrorRate_3rd_Ul:mean -nan
scalar SingleCell_D2D.ueD2DTx[1].cellularNic.mac harqErrorRate_3rd_Dl:mean -nan
scalar SingleCell_D2D.ueD2DTx[1].cellularNic.mac harqErrorRate_2nd_Ul:mean -nan
scalar SingleCell_D2D.ueD2DTx[1].cellularNic.mac harqErrorRate_2nd_Dl:mean -nan
scalar SingleCell_D2D.ueD2DTx[1].cellularNic.mac harqErrorRate_1st_Ul:mean 0
scalar SingleCell_D2D.ueD2DTx[1].cellularNic.mac harqErrorRate_1st_Dl:mean 0
scalar SingleCell_D2D.ueD2DTx[1].cellularNic.mac harqErrorRateUl:mean 0
scalar SingleCell_D2D.ueD2DTx[1].cellularNic.mac harqErrorRateDl:mean 0
scalar SingleCell_D2D.ueD2DTx[1].cellularNic.mac macCellPacketLossUl:mean -nan
scalar SingleCell_D2D.ueD2DTx[1].cellularNic.mac macCellPacketLossDl:mean -nan
scalar SingleCell_D2D.ueD2DTx[1].cellularNic.mac macPacketLossUl:mean 0
scalar SingleCell_D2D.ueD2DTx[1].cellularNic.mac macPacketLossDl:mean 0
scalar SingleCell_D2D.ueD2DTx[1].cellularNic.mac macThroughputUl:simu5g_rateavg 149013.34432343923
scalar SingleCell_D2D.ueD2DTx[1].cellularNic.mac macThroughputDl:simu5g_rateavg 10789.377656319151
scalar SingleCell_D2D.ueD2DTx[1].cellularNic.mac macDelayUl:mean 0.0040000000000000027
scalar SingleCell_D2D.ueD2DTx[1].cellularNic.mac macDelayDl:mean 0.0040000000000000027
scalar SingleCell_D2D.ueD2DTx[1].cellularNic.mac macCellThroughputUl:simu5g_rateavg -nan
scalar SingleCell_D2D.ueD2DTx[1].cellularNic.mac macCellThroughputDl:simu5g_rateavg -nan
scalar SingleCell_D2D.ueD2DTx[1].cellularNic.mac sentPacketToLowerLayer:count 1838
scalar SingleCell_D2D.ueD2DTx[1].cellularNic.mac sentPacketToLowerLayer:sum(packetBytes) 930812
scalar SingleCell_D2D.ueD2DTx[1].cellularNic.mac sentPacketToUpperLayer:count 1440
scalar SingleCell_D2D.ueD2DTx[1].cellularNic.mac sentPacketToUpperLayer:sum(packetBytes) 67688
scalar SingleCell_D2D.ueD2DTx[1].cellularNic.mac receivedPacketFromLowerLayer:count 2720
scalar SingleCell_D2D.ueD2DTx[1].cellularNic.mac receivedPacketFromLowerLayer:sum(packetBytes) 70177
scalar SingleCell_D2D.ueD2DTx[1].cellularNic.mac receivedPacketFromUpperLayer:count 2495
scalar SingleCell_D2D.ueD2DTx[1].cellularNic.mac receivedPacketFromUpperLayer:sum(packetBytes) 1860037
scalar SingleCell_D2D.ueD2DTx[1].cellularNic.mac macBufferOverFlowD2D:mean -nan
scalar SingleCell_D2D.ueD2DTx[1].cellularNic.mac macBufferOverFlowUl:mean -nan
scalar SingleCell_D2D.ueD2DTx[1].cellularNic.mac macBufferOverFlowDl:mean -nan
scalar SingleCell_D2D.ueD2DTx[1].cellularNic.phy distance:mean -nan
scalar SingleCell_D2D.ueD2DTx[1].cellularNic.phy averageCqiUl:mean 14
scalar SingleCell_D2D.ueD2DTx[1].cellularNic.phy averageCqiUl:count 878
scalar SingleCell_D2D.ueD2DTx[1].cellularNic.phy averageCqiDl:mean 15
scalar SingleCell_D2D.ueD2DTx[1].cellularNic.phy averageCqiDl:count 563
scalar SingleCell_D2D.ueD2DTx[1].cellularNic.channelModel[0] measuredSinrUl:mean 55.339674612077786
scalar SingleCell_D2D.ueD2DTx[1].cellularNic.channelModel[0] measuredSinrDl:mean 71.290221485498009
scalar SingleCell_D2D.ueD2DTx[1].cellularNic.channelModel[0] rcvdSinrD2D:mean -nan
scalar SingleCell_D2D.ueD2DTx[1].cellularNic.channelModel[0] rcvdSinrUl:mean 57.106482263166498
scalar SingleCell_D2D.ueD2DTx[1].cellularNic.channelModel[0] rcvdSinrDl:mean 71.735927461362792
scalar SingleCell_D2D.ueD2DTx[1].cellularNic packetDropInterfaceDown:count 0
scalar SingleCell_D2D.ueD2DTx[1].cellularNic packetDropInterfaceDown:sum(packetBytes) 0
scalar SingleCell_D2D.ueD2DTx[1].cellularNic packetDropNoCarrier:count 0
scalar SingleCell_D2D.ueD2DTx[1].cellularNic packetDropNoCarrier:sum(packetBytes) 0
scalar SingleCell_D2D.ueD2DTx[1].encap pauseSent:count 0
scalar SingleCell_D2D.ueD2DTx[1].encap pauseSent:sum 0
scalar SingleCell_D2D.ueD2DTx[1].encap decapPk:count 0
scalar SingleCell_D2D.ueD2DTx[1].encap decapPk:sum(packetBytes) 0
scalar SingleCell_D2D.ueD2DTx[1].encap encapPk:count 0
scalar SingleCell_D2D.ueD2DTx[1].encap encapPk:sum(packetBytes) 0
scalar SingleCell_D2D.ueD2DTx[1].ipv4.ip packetDropAddressResolutionFailed:count 0
scalar SingleCell_D2D.ueD2DTx[1].ipv4.ip packetDropAddressResolutionFailed:sum(packetBytes) 0
scalar SingleCell_D2D.ueD2DTx[1].ipv4.ip packetDropHopLimitReached:count 0
scalar SingleCell_D2D.ueD2DTx[1].ipv4.ip packetDropHopLimitReached:sum(packetBytes) 0
scalar SingleCell_D2D.ueD2DTx[1].ipv4.ip packetDropForwardingDisabled:count 0
scalar SingleCell_D2D.ueD2DTx[1].ipv4.ip packetDropForwardingDisabled:sum(packetBytes) 0
scalar SingleCell_D2D.ueD2DTx[1].ipv4.ip packetDropNoInterfaceFound:count 0
scalar SingleCell_D2D.ueD2DTx[1].ipv4.ip packetDropNoInterfaceFound:sum(packetBytes) 0
scalar SingleCell_D2D.ueD2DTx[1].ipv4.ip packetDropNoRouteFound:count 0
scalar SingleCell_D2D.ueD2DTx[1].ipv4.ip packetDropNoRouteFound:sum(packetBytes) 0
scalar SingleCell_D2D.ueD2DTx[1].ipv4.ip packetDropUndefined:count 0
scalar SingleCell_D2D.ueD2DTx[1].ipv4.ip packetDropUndefined:sum(packetBytes) 0
scalar SingleCell_D2D.ueD2DTx[1].ipv4.arp arpResolutionFailed:count 0
scalar SingleCell_D2D.ueD2DTx[1].ipv4.arp arpResolutionCompleted:count 0
scalar SingleCell_D2D.ueD2DTx[1].ipv4.arp arpResolutionInitiated:count 0
scalar SingleCell_D2D.ueD2DTx[1].ipv4.arp arpReplySent:count 0
scalar SingleCell_D2D.ueD2DTx[1].ipv4.arp arpReplySent:sum(packetBytes) 0
scalar SingleCell_D2D.ueD2DTx[1].ipv4.arp arpRequestSent:count 0
scalar SingleCell_D2D.ueD2DTx[1].ipv4.arp arpRequestSent:sum(packetBytes) 0
scalar SingleCell_D2D.ueD2DTx[1].udp packetReceived:count 0
scalar SingleCell_D2D.ueD2DTx[1].udp packetReceived:sum(packetBytes) 0
scalar SingleCell_D2D.ueD2DTx[1].udp packetSent:count 0
scalar SingleCell_D2D.ueD2DTx[1].udp packetSent:sum(packetBytes) 0
scalar SingleCell_D2D.ueD2DTx[1].udp passedUpPk:count 0
scalar SingleCell_D2D.ueD2DTx[1].udp droppedPkWrongPort:count 0
scalar SingleCell_D2D.ueD2DTx[1].udp droppedPkBadChecksum:count 0
scalar SingleCell_D2D.ueD2DTx[1].app[0] bytesRcvd 0
scalar SingleCell_D2D.ueD2DTx[1].app[0] bytesSent 1073741824
scalar SingleCell_D2D.ueD2DTx[1].app[0] packetReceived:count 0
scalar SingleCell_D2D.ueD2DTx[1].app[0] packetReceived:sum(packetBytes) 0
scalar SingleCell_D2D.ueD2DTx[1].app[0] packetSent:count 1
scalar SingleCell_D2D.ueD2DTx[1].app[0] packetSent:sum(packetBytes) 1073741824
scalar SingleCell_D2D.ueD2DTx[2].lo[0].lo rcvdPkFromHl:count 0
scalar SingleCell_D2D.ueD2DTx[2].lo[0].lo rcvdPkFromHl:sum(packetBytes) 0
scalar SingleCell_D2D.ueD2DTx[2].lo[0].lo passedUpPk:count 0
scalar SingleCell_D2D.ueD2DTx[2].lo[0].lo passedUpPk:sum(packetBytes) 0
scalar SingleCell_D2D.ueD2DTx[2].lo[0] packetDropInterfaceDown:count 0
scalar SingleCell_D2D.ueD2DTx[2].lo[0] packetDropInterfaceDown:sum(packetBytes) 0
scalar SingleCell_D2D.ueD2DTx[2].lo[0] packetDropNoCarrier:count 0
scalar SingleCell_D2D.ueD2DTx[2].lo[0] packetDropNoCarrier:sum(packetBytes) 0
scalar SingleCell_D2D.ueD2DTx[2].cellularNic.rlcMux rlcCellThroughputD2D:simu5g_rateavg -nan
scalar SingleCell_D2D.ueD2DTx[2].cellularNic.rlcMux rlcPduThroughputD2D:simu5g_rateavg -nan
scalar SingleCell_D2D.ueD2DTx[2].cellularNic.rlcMux rlcPduDelayD2D:mean -nan
scalar SingleCell_D2D.ueD2DTx[2].cellularNic.rlcMux rlcThroughputD2D:simu5g_rateavg -nan
scalar SingleCell_D2D.ueD2DTx[2].cellularNic.rlcMux rlcDelayD2D:mean -nan
scalar SingleCell_D2D.ueD2DTx[2].cellularNic.rlcMux rlcCellThroughputUl:simu5g_rateavg -nan
scalar SingleCell_D2D.ueD2DTx[2].cellularNic.rlcMux rlcCellThroughputDl:simu5g_rateavg -nan
scalar SingleCell_D2D.ueD2DTx[2].cellularNic.rlcMux rlcPduThroughputUl:simu5g_rateavg 0
scalar SingleCell_D2D.ueD2DTx[2].cellularNic.rlcMux rlcPduThroughputDl:simu5g_rateavg 0
scalar SingleCell_D2D.ueD2DTx[2].cellularNic.rlcMux rlcPduDelayUl:mean 0.0040000000000000027
scalar SingleCell_D2D.ueD2DTx[2].cellularNic.rlcMux rlcPduDelayDl:mean 0.0040000000000000027
scalar SingleCell_D2D.ueD2DTx[2].cellularNic.rlcMux rlcThroughputUl:simu5g_rateavg 153199.51585560726
scalar SingleCell_D2D.ueD2DTx[2].cellularNic.rlcMux rlcThroughputDl:simu5g_rateavg 10753.19168941375
scalar SingleCell_D2D.ueD2DTx[2].cellularNic.rlcMux rlcDelayUl:mean 0.018101924917958388
scalar SingleCell_D2D.ueD2DTx[2].cellularNic.rlcMux rlcDelayDl:mean 0.017200738916255724
scalar SingleCell_D2D.ueD2DTx[2].cellularNic.rlcMux sentPacketToLowerLayer:count 2532
scalar SingleCell_D2D.ueD2DTx[2].cellularNic.rlcMux sentPacketToLowerLayer:sum(packetBytes) 1887764
scalar SingleCell_D2D.ueD2DTx[2].cellularNic.rlcMux receivedPacketFromLowerLayer:count 514
scalar SingleCell_D2D.ueD2DTx[2].cellularNic.rlcMux receivedPacketFromLowerLayer:sum(packetBytes) 67616
scalar SingleCell_D2D.ueD2DTx[2].cellularNic.mac harqTxAttemptsUl:mean 1
scalar SingleCell_D2D.ueD2DTx[2].cellularNic.mac harqTxAttemptsDl:mean 1
scalar SingleCell_D2D.ueD2DTx[2].cellularNic.mac harqErrorRate_4th_Ul:mean -nan
scalar SingleCell_D2D.ueD2DTx[2].cellularNic.mac harqErrorRate_4th_Dl:mean -nan
scalar SingleCell_D2D.ueD2DTx[2].cellularNic.mac harqErrorRate_3rd_Ul:mean -nan
scalar SingleCell_D2D.ueD2DTx[2].cellularNic.mac harqErrorRate_3rd_Dl:mean -nan
scalar SingleCell_D2D.ueD2DTx[2].cellularNic.mac harqErrorRate_2nd_Ul:mean -nan
scalar SingleCell_D2D.ueD2DTx[2].cellularNic.mac harqErrorRate_2nd_Dl:mean -nan
scalar SingleCell_D2D.ueD2DTx[2].cellularNic.mac harqErrorRate_1st_Ul:mean 0
scalar SingleCell_D2D.ueD2DTx[2].cellularNic.mac harqErrorRate_1st_Dl:mean 0
scalar SingleCell_D2D.ueD2DTx[2].cellularNic.mac harqErrorRateUl:mean 0
scalar SingleCell_D2D.ueD2DTx[2].cellularNic.mac harqErrorRateDl:mean 0
scalar SingleCell_D2D.ueD2DTx[2].cellularNic.mac macCellPacketLossUl:mean -nan
scalar SingleCell_D2D.ueD2DTx[2].cellularNic.mac macCellPacketLossDl:mean -nan
scalar SingleCell_D2D.ueD2DTx[2].cellularNic.mac macPacketLossUl:mean 0
scalar SingleCell_D2D.ueD2DTx[2].cellularNic.mac macPacketLossDl:mean 0
scalar SingleCell_D2D.ueD2DTx[2].cellularNic.mac macThroughputUl:simu5g_rateavg 154237.1061923019
scalar SingleCell_D2D.ueD2DTx[2].cellularNic.mac macThroughputDl:simu5g_rateavg 11138.764063721777
scalar SingleCell_D2D.ueD2DTx[2].cellularNic.mac macDelayUl:mean 0.0040000000000000027
scalar SingleCell_D2D.ueD2DTx[2].cellularNic.mac macDelayDl:mean 0.0040000000000000027
scalar SingleCell_D2D.ueD2DTx[2].cellularNic.mac macCellThroughputUl:simu5g_rateavg -nan
scalar SingleCell_D2D.ueD2DTx[2].cellularNic.mac macCellThroughputDl:simu5g_rateavg -nan
scalar SingleCell_D2D.ueD2DTx[2].cellularNic.mac sentPacketToLowerLayer:count 1809
scalar SingleCell_D2D.ueD2DTx[2].cellularNic.mac sentPacketToLowerLayer:sum(packetBytes) 945831
scalar SingleCell_D2D.ueD2DTx[2].cellularNic.mac sentPacketToUpperLayer:count 1407
scalar SingleCell_D2D.ueD2DTx[2].cellularNic.mac sentPacketToUpperLayer:sum(packetBytes) 68509
scalar SingleCell_D2D.ueD2DTx[2].cellularNic.mac receivedPacketFromLowerLayer:count 2703
scalar SingleCell_D2D.ueD2DTx[2].cellularNic.mac receivedPacketFromLowerLayer:sum(packetBytes) 70833
scalar SingleCell_D2D.ueD2DTx[2].cellularNic.mac receivedPacketFromUpperLayer:count 2532
scalar SingleCell_D2D.ueD2DTx[2].cellularNic.mac receivedPacketFromUpperLayer:sum(packetBytes) 1887764
scalar SingleCell_D2D.ueD2DTx[2].cellularNic.mac macBufferOverFlowD2D:mean -nan
scalar SingleCell_D2D.ueD2DTx[2].cellularNic.mac macBufferOverFlowUl:mean -nan
scalar SingleCell_D2D.ueD2DTx[2].cellularNic.mac macBufferOverFlowDl:mean -nan
scalar SingleCell_D2D.ueD2DTx[2].cellularNic.phy distance:mean -nan
scalar SingleCell_D2D.ueD2DTx[2].cellularNic.phy averageCqiUl:mean 14
scalar SingleCell_D2D.ueD2DTx[2].cellularNic.phy averageCqiUl:count 893
scalar SingleCell_D2D.ueD2DTx[2].cellularNic.phy averageCqiDl:mean 15
scalar SingleCell_D2D.ueD2DTx[2].cellularNic.phy averageCqiDl:count 514
scalar SingleCell_D2D.ueD2DTx[2].cellularNic.channelModel[0] measuredSinrUl:mean 49.923692756385712
scalar SingleCell_D2D.ueD2DTx[2].cellularNic.channelModel[0] measuredSinrDl:mean 80.777229823717562
scalar SingleCell_D2D.ueD2DTx[2].cellularNic.channelModel[0] rcvdSinrD2D:mean -nan
scalar SingleCell_D2D.ueD2DTx[2].cellularNic.channelModel[0] rcvdSinrUl:mean 51.001110168329092
scalar SingleCell_D2D.ueD2DTx[2].cellularNic.channelModel[0] rcvdSinrDl:mean 84.342471892976974
scalar SingleCell_D2D.ueD2DTx[2].cellularNic packetDropInterfaceDown:count 0
scalar SingleCell_D2D.ueD2DTx[2].cellularNic packetDropInterfaceDown:sum(packetBytes) 0
scalar SingleCell_D2D.ueD2DTx[2].cellularNic packetDropNoCarrier:count 0
scalar SingleCell_D2D.ueD2DTx[2].cellularNic packetDropNoCarrier:sum(packetBytes) 0
scalar SingleCell_D2D.ueD2DTx[2].encap pauseSent:count 0
scalar SingleCell_D2D.ueD2DTx[2].encap pauseSent:sum 0
scalar SingleCell_D2D.ueD2DTx[2].encap decapPk:count 0
scalar SingleCell_D2D.ueD2DTx[2].encap decapPk:sum(packetBytes) 0
scalar SingleCell_D2D.ueD2DTx[2].encap encapPk:count 0
scalar SingleCell_D2D.ueD2DTx[2].encap encapPk:sum(packetBytes) 0
scalar SingleCell_D2D.ueD2DTx[2].ipv4.ip packetDropAddressResolutionFailed:count 0
scalar SingleCell_D2D.ueD2DTx[2].ipv4.ip packetDropAddressResolutionFailed:sum(packetBytes) 0
scalar SingleCell_D2D.ueD2DTx[2].ipv4.ip packetDropHopLimitReached:count 0
scalar SingleCell_D2D.ueD2DTx[2].ipv4.ip packetDropHopLimitReached:sum(packetBytes) 0
scalar SingleCell_D2D.ueD2DTx[2].ipv4.ip packetDropForwardingDisabled:count 0
scalar SingleCell_D2D.ueD2DTx[2].ipv4.ip packetDropForwardingDisabled:sum(packetBytes) 0
scalar SingleCell_D2D.ueD2DTx[2].ipv4.ip packetDropNoInterfaceFound:count 0
scalar SingleCell_D2D.ueD2DTx[2].ipv4.ip packetDropNoInterfaceFound:sum(packetBytes) 0
scalar SingleCell_D2D.ueD2DTx[2].ipv4.ip packetDropNoRouteFound:count 0
scalar SingleCell_D2D.ueD2DTx[2].ipv4.ip packetDropNoRouteFound:sum(packetBytes) 0
scalar SingleCell_D2D.ueD2DTx[2].ipv4.ip packetDropUndefined:count 0
scalar SingleCell_D2D.ueD2DTx[2].ipv4.ip packetDropUndefined:sum(packetBytes) 0
scalar SingleCell_D2D.ueD2DTx[2].ipv4.arp arpResolutionFailed:count 0
scalar SingleCell_D2D.ueD2DTx[2].ipv4.arp arpResolutionCompleted:count 0
scalar SingleCell_D2D.ueD2DTx[2].ipv4.arp arpResolutionInitiated:count 0
scalar SingleCell_D2D.ueD2DTx[2].ipv4.arp arpReplySent:count 0
scalar SingleCell_D2D.ueD2DTx[2].ipv4.arp arpReplySent:sum(packetBytes) 0
scalar SingleCell_D2D.ueD2DTx[2].ipv4.arp arpRequestSent:count 0
scalar SingleCell_D2D.ueD2DTx[2].ipv4.arp arpRequestSent:sum(packetBytes) 0
scalar SingleCell_D2D.ueD2DTx[2].udp packetReceived:count 0
scalar SingleCell_D2D.ueD2DTx[2].udp packetReceived:sum(packetBytes) 0
scalar SingleCell_D2D.ueD2DTx[2].udp packetSent:count 0
scalar SingleCell_D2D.ueD2DTx[2].udp packetSent:sum(packetBytes) 0
scalar SingleCell_D2D.ueD2DTx[2].udp passedUpPk:count 0
scalar SingleCell_D2D.ueD2DTx[2].udp droppedPkWrongPort:count 0
scalar SingleCell_D2D.ueD2DTx[2].udp droppedPkBadChecksum:count 0
scalar SingleCell_D2D.ueD2DTx[2].app[0] bytesRcvd 0
scalar SingleCell_D2D.ueD2DTx[2].app[0] bytesSent 1073741824
scalar SingleCell_D2D.ueD2DTx[2].app[0] packetReceived:count 0
scalar SingleCell_D2D.ueD2DTx[2].app[0] packetReceived:sum(packetBytes) 0
scalar SingleCell_D2D.ueD2DTx[2].app[0] packetSent:count 1
scalar SingleCell_D2D.ueD2DTx[2].app[0] packetSent:sum(packetBytes) 1073741824
scalar SingleCell_D2D.ueD2DTx[3].lo[0].lo rcvdPkFromHl:count 0
scalar SingleCell_D2D.ueD2DTx[3].lo[0].lo rcvdPkFromHl:sum(packetBytes) 0
scalar SingleCell_D2D.ueD2DTx[3].lo[0].lo passedUpPk:count 0
scalar SingleCell_D2D.ueD2DTx[3].lo[0].lo passedUpPk:sum(packetBytes) 0
scalar SingleCell_D2D.ueD2DTx[3].lo[0] packetDropInterfaceDown:count 0
scalar SingleCell_D2D.ueD2DTx[3].lo[0] packetDropInterfaceDown:sum(packetBytes) 0
scalar SingleCell_D2D.ueD2DTx[3].lo[0] packetDropNoCarrier:count 0
scalar SingleCell_D2D.ueD2DTx[3].lo[0] packetDropNoCarrier:sum(packetBytes) 0
scalar SingleCell_D2D.ueD2DTx[3].cellularNic.rlcMux rlcCellThroughputD2D:simu5g_rateavg -nan
scalar SingleCell_D2D.ueD2DTx[3].cellularNic.rlcMux rlcPduThroughputD2D:simu5g_rateavg -nan
scalar SingleCell_D2D.ueD2DTx[3].cellularNic.rlcMux rlcPduDelayD2D:mean -nan
scalar SingleCell_D2D.ueD2DTx[3].cellularNic.rlcMux rlcThroughputD2D:simu5g_rateavg -nan
scalar SingleCell_D2D.ueD2DTx[3].cellularNic.rlcMux rlcDelayD2D:mean -nan
scalar SingleCell_D2D.ueD2DTx[3].cellularNic.rlcMux rlcCellThroughputUl:simu5g_rateavg -nan
scalar SingleCell_D2D.ueD2DTx[3].cellularNic.rlcMux rlcCellThroughputDl:simu5g_rateavg -nan
scalar SingleCell_D2D.ueD2DTx[3].cellularNic.rlcMux rlcPduThroughputUl:simu5g_rateavg 0
scalar SingleCell_D2D.ueD2DTx[3].cellularNic.rlcMux rlcPduThroughputDl:simu5g_rateavg 0
scalar SingleCell_D2D.ueD2DTx[3].cellularNic.rlcMux rlcPduDelayUl:mean 0.0040000000000000027
scalar SingleCell_D2D.ueD2DTx[3].cellularNic.rlcMux rlcPduDelayDl:mean 0.0040000000000000027
scalar SingleCell_D2D.ueD2DTx[3].cellularNic.rlcMux rlcThroughputUl:simu5g_rateavg 145512.21221748777
scalar SingleCell_D2D.ueD2DTx[3].cellularNic.rlcMux rlcThroughputDl:simu5g_rateavg 10218.163667967798
scalar SingleCell_D2D.ueD2DTx[3].cellularNic.rlcMux rlcDelayUl:mean 0.01787722135625577
scalar SingleCell_D2D.ueD2DTx[3].cellularNic.rlcMux rlcDelayDl:mean 0.017103362391033196
scalar SingleCell_D2D.ueD2DTx[3].cellularNic.rlcMux sentPacketToLowerLayer:count 2516
scalar SingleCell_D2D.ueD2DTx[3].cellularNic.rlcMux sentPacketToLowerLayer:sum(packetBytes) 1864602
scalar SingleCell_D2D.ueD2DTx[3].cellularNic.rlcMux receivedPacketFromLowerLayer:count 516
scalar SingleCell_D2D.ueD2DTx[3].cellularNic.rlcMux receivedPacketFromLowerLayer:sum(packetBytes) 66882
scalar SingleCell_D2D.ueD2DTx[3].cellularNic.mac harqTxAttemptsUl:mean 1
scalar SingleCell_D2D.ueD2DTx[3].cellularNic.mac harqTxAttemptsDl:mean 1
scalar SingleCell_D2D.ueD2DTx[3].cellularNic.mac harqErrorRate_4th_Ul:mean -nan
scalar SingleCell_D2D.ueD2DTx[3].cellularNic.mac harqErrorRate_4th_Dl:mean -nan
scalar SingleCell_D2D.ueD2DTx[3].cellularNic.mac harqErrorRate_3rd_Ul:mean -nan
scalar SingleCell_D2D.ueD2DTx[3].cellularNic.mac harqErrorRate_3rd_Dl:mean -nan
scalar SingleCell_D2D.ueD2DTx[3].cellularNic.mac harqErrorRate_2nd_Ul:mean -nan
scalar SingleCell_D2D.ueD2DTx[3].cellularNic.mac harqErrorRate_2nd_Dl:mean -nan
scalar SingleCell_D2D.ueD2DTx[3].cellularNic.mac harqErrorRate_1st_Ul:mean 0
scalar SingleCell_D2D.ueD2DTx[3].cellularNic.mac harqErrorRate_1st_Dl:mean 0
scalar SingleCell_D2D.ueD2DTx[3].cellularNic.mac harqErrorRateUl:mean 0
scalar SingleCell_D2D.ueD2DTx[3].cellularNic.mac harqErrorRateDl:mean 0
scalar SingleCell_D2D.ueD2DTx[3].cellularNic.mac macCellPacketLossUl:mean -nan
scalar SingleCell_D2D.ueD2DTx[3].cellularNic.mac macCellPacketLossDl:mean -nan
scalar SingleCell_D2D.ueD2DTx[3].cellularNic.mac macPacketLossUl:mean 0
scalar SingleCell_D2D.ueD2DTx[3].cellularNic.mac macPacketLossDl:mean 0
scalar SingleCell_D2D.ueD2DTx[3].cellularNic.mac macThroughputUl:simu5g_rateavg 146495.02676475374
scalar SingleCell_D2D.ueD2DTx[3].cellularNic.mac macThroughputDl:simu5g_rateavg 10603.667960745925
scalar SingleCell_D2D.ueD2DTx[3].cellularNic.mac macDelayUl:mean 0.0040000000000000027
scalar SingleCell_D2D.ueD2DTx[3].cellularNic.mac macDelayDl:mean 0.0040000000000000027
scalar SingleCell_D2D.ueD2DTx[3].cellularNic.mac macCellThroughputUl:simu5g_rateavg -nan
scalar SingleCell_D2D.ueD2DTx[3].cellularNic.mac macCellThroughputDl:simu5g_rateavg -nan
scalar SingleCell_D2D.ueD2DTx[3].cellularNic.mac sentPacketToLowerLayer:count 1811
scalar SingleCell_D2D.ueD2DTx[3].cellularNic.mac sentPacketToLowerLayer:sum(packetBytes) 933059
scalar SingleCell_D2D.ueD2DTx[3].cellularNic.mac sentPacketToUpperLayer:count 1411
scalar SingleCell_D2D.ueD2DTx[3].cellularNic.mac sentPacketToUpperLayer:sum(packetBytes) 67777
scalar SingleCell_D2D.ueD2DTx[3].cellularNic.mac receivedPacketFromLowerLayer:count 2707
scalar SingleCell_D2D.ueD2DTx[3].cellularNic.mac receivedPacketFromLowerLayer:sum(packetBytes) 70105
scalar SingleCell_D2D.ueD2DTx[3].cellularNic.mac receivedPacketFromUpperLayer:count 2516
scalar SingleCell_D2D.ueD2DTx[3].cellularNic.mac receivedPacketFromUpperLayer:sum(packetBytes) 1864602
scalar SingleCell_D2D.ueD2DTx[3].cellularNic.mac macBufferOverFlowD2D:mean -nan
scalar SingleCell_D2D.ueD2DTx[3].cellularNic.mac macBufferOverFlowUl:mean -nan
scalar SingleCell_D2D.ueD2DTx[3].cellularNic.mac macBufferOverFlowDl:mean -nan
scalar SingleCell_D2D.ueD2DTx[3].cellularNic.phy distance:mean -nan
scalar SingleCell_D2D.ueD2DTx[3].cellularNic.phy averageCqiUl:mean 15
scalar SingleCell_D2D.ueD2DTx[3].cellularNic.phy averageCqiUl:count 895
scalar SingleCell_D2D.ueD2DTx[3].cellularNic.phy averageCqiDl:mean 15
scalar SingleCell_D2D.ueD2DTx[3].cellularNic.phy averageCqiDl:count 516
scalar SingleCell_D2D.ueD2DTx[3].cellularNic.channelModel[0] measuredSinrUl:mean 58.679651697289827
scalar SingleCell_D2D.ueD2DTx[3].cellularNic.channelModel[0] measuredSinrDl:mean 74.725248238166003
scalar SingleCell_D2D.ueD2DTx[3].cellularNic.channelModel[0] rcvdSinrD2D:mean -nan
scalar SingleCell_D2D.ueD2DTx[3].cellularNic.channelModel[0] rcvdSinrUl:mean 61.051059273109004
scalar SingleCell_D2D.ueD2DTx[3].cellularNic.channelModel[0] rcvdSinrDl:mean 73.970161960338402
scalar SingleCell_D2D.ueD2DTx[3].cellularNic packetDropInterfaceDown:count 0
scalar SingleCell_D2D.ueD2DTx[3].cellularNic packetDropInterfaceDown:sum(packetBytes) 0
scalar SingleCell_D2D.ueD2DTx[3].cellularNic packetDropNoCarrier:count 0
scalar SingleCell_D2D.ueD2DTx[3].cellularNic packetDropNoCarrier:sum(packetBytes) 0
scalar SingleCell_D2D.ueD2DTx[3].encap pauseSent:count 0
scalar SingleCell_D2D.ueD2DTx[3].encap pauseSent:sum 0
scalar SingleCell_D2D.ueD2DTx[3].encap decapPk:count 0
scalar SingleCell_D2D.ueD2DTx[3].encap decapPk:sum(packetBytes) 0
scalar SingleCell_D2D.ueD2DTx[3].encap encapPk:count 0
scalar SingleCell_D2D.ueD2DTx[3].encap encapPk:sum(packetBytes) 0
scalar SingleCell_D2D.ueD2DTx[3].ipv4.ip packetDropAddressResolutionFailed:count 0
scalar SingleCell_D2D.ueD2DTx[3].ipv4.ip packetDropAddressResolutionFailed:sum(packetBytes) 0
scalar SingleCell_D2D.ueD2DTx[3].ipv4.ip packetDropHopLimitReached:count 0
scalar SingleCell_D2D.ueD2DTx[3].ipv4.ip packetDropHopLimitReached:sum(packetBytes) 0
scalar SingleCell_D2D.ueD2DTx[3].ipv4.ip packetDropForwardingDisabled:count 0
scalar SingleCell_D2D.ueD2DTx[3].ipv4.ip packetDropForwardingDisabled:sum(packetBytes) 0
scalar SingleCell_D2D.ueD2DTx[3].ipv4.ip packetDropNoInterfaceFound:count 0
scalar SingleCell_D2D.ueD2DTx[3].ipv4.ip packetDropNoInterfaceFound:sum(packetBytes) 0
scalar SingleCell_D2D.ueD2DTx[3].ipv4.ip packetDropNoRouteFound:count 0
scalar SingleCell_D2D.ueD2DTx[3].ipv4.ip packetDropNoRouteFound:sum(packetBytes) 0
scalar SingleCell_D2D.ueD2DTx[3].ipv4.ip packetDropUndefined:count 0
scalar SingleCell_D2D.ueD2DTx[3].ipv4.ip packetDropUndefined:sum(packetBytes) 0
scalar SingleCell_D2D.ueD2DTx[3].ipv4.arp arpResolutionFailed:count 0
scalar SingleCell_D2D.ueD2DTx[3].ipv4.arp arpResolutionCompleted:count 0
scalar SingleCell_D2D.ueD2DTx[3].ipv4.arp arpResolutionInitiated:count 0
scalar SingleCell_D2D.ueD2DTx[3].ipv4.arp arpReplySent:count 0
scalar SingleCell_D2D.ueD2DTx[3].ipv4.arp arpReplySent:sum(packetBytes) 0
scalar SingleCell_D2D.ueD2DTx[3].ipv4.arp arpRequestSent:count 0
scalar SingleCell_D2D.ueD2DTx[3].ipv4.arp arpRequestSent:sum(packetBytes) 0
scalar SingleCell_D2D.ueD2DTx[3].udp packetReceived:count 0
scalar SingleCell_D2D.ueD2DTx[3].udp packetReceived:sum(packetBytes) 0
scalar SingleCell_D2D.ueD2DTx[3].udp packetSent:count 0
scalar SingleCell_D2D.ueD2DTx[3].udp packetSent:sum(packetBytes) 0
scalar SingleCell_D2D.ueD2DTx[3].udp passedUpPk:count 0
scalar SingleCell_D2D.ueD2DTx[3].udp droppedPkWrongPort:count 0
scalar SingleCell_D2D.ueD2DTx[3].udp droppedPkBadChecksum:count 0
scalar SingleCell_D2D.ueD2DTx[3].app[0] bytesRcvd 0
scalar SingleCell_D2D.ueD2DTx[3].app[0] bytesSent 1073741824
scalar SingleCell_D2D.ueD2DTx[3].app[0] packetReceived:count 0
scalar SingleCell_D2D.ueD2DTx[3].app[0] packetReceived:sum(packetBytes) 0
scalar SingleCell_D2D.ueD2DTx[3].app[0] packetSent:count 1
scalar SingleCell_D2D.ueD2DTx[3].app[0] packetSent:sum(packetBytes) 1073741824
scalar SingleCell_D2D.ueD2DTx[4].lo[0].lo rcvdPkFromHl:count 0
scalar SingleCell_D2D.ueD2DTx[4].lo[0].lo rcvdPkFromHl:sum(packetBytes) 0
scalar SingleCell_D2D.ueD2DTx[4].lo[0].lo passedUpPk:count 0
scalar SingleCell_D2D.ueD2DTx[4].lo[0].lo passedUpPk:sum(packetBytes) 0
scalar SingleCell_D2D.ueD2DTx[4].lo[0] packetDropInterfaceDown:count 0
scalar SingleCell_D2D.ueD2DTx[4].lo[0] packetDropInterfaceDown:sum(packetBytes) 0
scalar SingleCell_D2D.ueD2DTx[4].lo[0] packetDropNoCarrier:count 0
scalar SingleCell_D2D.ueD2DTx[4].lo[0] packetDropNoCarrier:sum(packetBytes) 0
scalar SingleCell_D2D.ueD2DTx[4].cellularNic.rlcMux rlcCellThroughputD2D:simu5g_rateavg -nan
scalar SingleCell_D2D.ueD2DTx[4].cellularNic.rlcMux rlcPduThroughputD2D:simu5g_rateavg -nan
scalar SingleCell_D2D.ueD2DTx[4].cellularNic.rlcMux rlcPduDelayD2D:mean -nan
scalar SingleCell_D2D.ueD2DTx[4].cellularNic.rlcMux rlcThroughputD2D:simu5g_rateavg -nan
scalar SingleCell_D2D.ueD2DTx[4].cellularNic.rlcMux rlcDelayD2D:mean -nan
scalar SingleCell_D2D.ueD2DTx[4].cellularNic.rlcMux rlcCellThroughputUl:simu5g_rateavg -nan
scalar SingleCell_D2D.ueD2DTx[4].cellularNic.rlcMux rlcCellThroughputDl:simu5g_rateavg -nan
scalar SingleCell_D2D.ueD2DTx[4].cellularNic.rlcMux rlcPduThroughputUl:simu5g_rateavg 0
scalar SingleCell_D2D.ueD2DTx[4].cellularNic.rlcMux rlcPduThroughputDl:simu5g_rateavg 0
scalar SingleCell_D2D.ueD2DTx[4].cellularNic.rlcMux rlcPduDelayUl:mean 0.0040000000000000027
scalar SingleCell_D2D.ueD2DTx[4].cellularNic.rlcMux rlcPduDelayDl:mean 0.0040000000000000027
scalar SingleCell_D2D.ueD2DTx[4].cellularNic.rlcMux rlcThroughputUl:simu5g_rateavg 149642.12664591585
scalar SingleCell_D2D.ueD2DTx[4].cellularNic.rlcMux rlcThroughputDl:simu5g_rateavg 10509.833487924096
scalar SingleCell_D2D.ueD2DTx[4].cellularNic.rlcMux rlcDelayUl:mean 0.018213367650650059
scalar SingleCell_D2D.ueD2DTx[4].cellularNic.rlcMux rlcDelayDl:mean 0.017052729528535555
scalar SingleCell_D2D.ueD2DTx[4].cellularNic.rlcMux sentPacketToLowerLayer:count 2532
scalar SingleCell_D2D.ueD2DTx[4].cellularNic.rlcMux sentPacketToLowerLayer:sum(packetBytes) 1875009
scalar SingleCell_D2D.ueD2DTx[4].cellularNic.rlcMux receivedPacketFromLowerLayer:count 500
scalar SingleCell_D2D.ueD2DTx[4].cellularNic.rlcMux receivedPacketFromLowerLayer:sum(packetBytes) 67096
scalar SingleCell_D2D.ueD2DTx[4].cellularNic.mac harqTxAttemptsUl:mean 1
scalar SingleCell_D2D.ueD2DTx[4].cellularNic.mac harqTxAttemptsDl:mean 1
scalar SingleCell_D2D.ueD2DTx[4].cellularNic.mac harqErrorRate_4th_Ul:mean -nan
scalar SingleCell_D2D.ueD2DTx[4].cellularNic.mac harqErrorRate_4th_Dl:mean -nan
scalar SingleCell_D2D.ueD2DTx[4].cellularNic.mac harqErrorRate_3rd_Ul:mean -nan
scalar SingleCell_D2D.ueD2DTx[4].cellularNic.mac harqErrorRate_3rd_Dl:mean -nan
scalar SingleCell_D2D.ueD2DTx[4].cellularNic.mac harqErrorRate_2nd_Ul:mean -nan
scalar SingleCell_D2D.ueD2DTx[4].cellularNic.mac harqErrorRate_2nd_Dl:mean -nan
scalar SingleCell_D2D.ueD2DTx[4].cellularNic.mac harqErrorRate_1st_Ul:mean 0
scalar SingleCell_D2D.ueD2DTx[4].cellularNic.mac harqErrorRate_1st_Dl:mean 0
scalar SingleCell_D2D.ueD2DTx[4].cellularNic.mac harqErrorRateUl:mean 0
scalar SingleCell_D2D.ueD2DTx[4].cellularNic.mac harqErrorRateDl:mean 0
scalar SingleCell_D2D.ueD2DTx[4].cellularNic.mac macCellPacketLossUl:mean -nan
scalar SingleCell_D2D.ueD2DTx[4].cellularNic.mac macCellPacketLossDl:mean -nan
scalar SingleCell_D2D.ueD2DTx[4].cellularNic.mac macPacketLossUl:mean 0
scalar SingleCell_D2D.ueD2DTx[4].cellularNic.mac macPacketLossDl:mean 0
scalar SingleCell_D2D.ueD2DTx[4].cellularNic.mac macThroughputUl:simu5g_rateavg 150598.16278363066
scalar SingleCell_D2D.ueD2DTx[4].cellularNic.mac macThroughputDl:simu5g_rateavg 10875.839820861836
scalar SingleCell_D2D.ueD2DTx[4].cellularNic.mac macDelayUl:mean 0.0040000000000000027
scalar SingleCell_D2D.ueD2DTx[4].cellularNic.mac macDelayDl:mean 0.0040000000000000027
scalar SingleCell_D2D.ueD2DTx[4].cellularNic.mac macCellThroughputUl:simu5g_rateavg -nan
scalar SingleCell_D2D.ueD2DTx[4].cellularNic.mac macCellThroughputDl:simu5g_rateavg -nan
scalar SingleCell_D2D.ueD2DTx[4].cellularNic.mac sentPacketToLowerLayer:count 1805
scalar SingleCell_D2D.ueD2DTx[4].cellularNic.mac sentPacketToLowerLayer:sum(packetBytes) 940008
scalar SingleCell_D2D.ueD2DTx[4].cellularNic.mac sentPacketToUpperLayer:count 1405
scalar SingleCell_D2D.ueD2DTx[4].cellularNic.mac sentPacketToUpperLayer:sum(packetBytes) 68001
scalar SingleCell_D2D.ueD2DTx[4].cellularNic.mac receivedPacketFromLowerLayer:count 2709
scalar SingleCell_D2D.ueD2DTx[4].cellularNic.mac receivedPacketFromLowerLayer:sum(packetBytes) 70305
scalar SingleCell_D2D.ueD2DTx[4].cellularNic.mac receivedPacketFromUpperLayer:count 2532
scalar SingleCell_D2D.ueD2DTx[4].cellularNic.mac receivedPacketFromUpperLayer:sum(packetBytes) 1875009
scalar SingleCell_D2D.ueD2DTx[4].cellularNic.mac macBufferOverFlowD2D:mean -nan
scalar SingleCell_D2D.ueD2DTx[4].cellularNic.mac macBufferOverFlowUl:mean -nan
scalar SingleCell_D2D.ueD2DTx[4].cellularNic.mac macBufferOverFlowDl:mean -nan
scalar SingleCell_D2D.ueD2DTx[4].cellularNic.phy distance:mean -nan
scalar SingleCell_D2D.ueD2DTx[4].cellularNic.phy averageCqiUl:mean 14
scalar SingleCell_D2D.ueD2DTx[4].cellularNic.phy averageCqiUl:count 905
scalar SingleCell_D2D.ueD2DTx[4].cellularNic.phy averageCqiDl:mean 15
scalar SingleCell_D2D.ueD2DTx[4].cellularNic.phy averageCqiDl:count 500
scalar SingleCell_D2D.ueD2DTx[4].cellularNic.channelModel[0] measuredSinrUl:mean 52.162693031728288
scalar SingleCell_D2D.ueD2DTx[4].cellularNic.channelModel[0] measuredSinrDl:mean 77.042272944438395
scalar SingleCell_D2D.ueD2DTx[4].cellularNic.channelModel[0] rcvdSinrD2D:mean -nan
scalar SingleCell_D2D.ueD2DTx[4].cellularNic.channelModel[0] rcvdSinrUl:mean 50.277882966406764
scalar SingleCell_D2D.ueD2DTx[4].cellularNic.channelModel[0] rcvdSinrDl:mean 80.023047874863934
scalar SingleCell_D2D.ueD2DTx[4].cellularNic packetDropInterfaceDown:count 0
scalar SingleCell_D2D.ueD2DTx[4].cellularNic packetDropInterfaceDown:sum(packetBytes) 0
scalar SingleCell_D2D.ueD2DTx[4].cellularNic packetDropNoCarrier:count 0
scalar SingleCell_D2D.ueD2DTx[4].cellularNic packetDropNoCarrier:sum(packetBytes) 0
scalar SingleCell_D2D.ueD2DTx[4].encap pauseSent:count 0
scalar SingleCell_D2D.ueD2DTx[4].encap pauseSent:sum 0
scalar SingleCell_D2D.ueD2DTx[4].encap decapPk:count 0
scalar SingleCell_D2D.ueD2DTx[4].encap decapPk:sum(packetBytes) 0
scalar SingleCell_D2D.ueD2DTx[4].encap encapPk:count 0
scalar SingleCell_D2D.ueD2DTx[4].encap encapPk:sum(packetBytes) 0
scalar SingleCell_D2D.ueD2DTx[4].ipv4.ip packetDropAddressResolutionFailed:count 0
scalar SingleCell_D2D.ueD2DTx[4].ipv4.ip packetDropAddressResolutionFailed:sum(packetBytes) 0
scalar SingleCell_D2D.ueD2DTx[4].ipv4.ip packetDropHopLimitReached:count 0
scalar SingleCell_D2D.ueD2DTx[4].ipv4.ip packetDropHopLimitReached:sum(packetBytes) 0
scalar SingleCell_D2D.ueD2DTx[4].ipv4.ip packetDropForwardingDisabled:count 0
scalar SingleCell_D2D.ueD2DTx[4].ipv4.ip packetDropForwardingDisabled:sum(packetBytes) 0
scalar SingleCell_D2D.ueD2DTx[4].ipv4.ip packetDropNoInterfaceFound:count 0
scalar SingleCell_D2D.ueD2DTx[4].ipv4.ip packetDropNoInterfaceFound:sum(packetBytes) 0
scalar SingleCell_D2D.ueD2DTx[4].ipv4.ip packetDropNoRouteFound:count 0
scalar SingleCell_D2D.ueD2DTx[4].ipv4.ip packetDropNoRouteFound:sum(packetBytes) 0
scalar SingleCell_D2D.ueD2DTx[4].ipv4.ip packetDropUndefined:count 0
scalar SingleCell_D2D.ueD2DTx[4].ipv4.ip packetDropUndefined:sum(packetBytes) 0
scalar SingleCell_D2D.ueD2DTx[4].ipv4.arp arpResolutionFailed:count 0
scalar SingleCell_D2D.ueD2DTx[4].ipv4.arp arpResolutionCompleted:count 0
scalar SingleCell_D2D.ueD2DTx[4].ipv4.arp arpResolutionInitiated:count 0
scalar SingleCell_D2D.ueD2DTx[4].ipv4.arp arpReplySent:count 0
scalar SingleCell_D2D.ueD2DTx[4].ipv4.arp arpReplySent:sum(packetBytes) 0
scalar SingleCell_D2D.ueD2DTx[4].ipv4.arp arpRequestSent:count 0
scalar SingleCell_D2D.ueD2DTx[4].ipv4.arp arpRequestSent:sum(packetBytes) 0
scalar SingleCell_D2D.ueD2DTx[4].udp packetReceived:count 0
scalar SingleCell_D2D.ueD2DTx[4].udp packetReceived:sum(packetBytes) 0
scalar SingleCell_D2D.ueD2DTx[4].udp packetSent:count 0
scalar SingleCell_D2D.ueD2DTx[4].udp packetSent:sum(packetBytes) 0
scalar SingleCell_D2D.ueD2DTx[4].udp passedUpPk:count 0
scalar SingleCell_D2D.ueD2DTx[4].udp droppedPkWrongPort:count 0
scalar SingleCell_D2D.ueD2DTx[4].udp droppedPkBadChecksum:count 0
scalar SingleCell_D2D.ueD2DTx[4].app[0] bytesRcvd 0
scalar SingleCell_D2D.ueD2DTx[4].app[0] bytesSent 1073741824
scalar SingleCell_D2D.ueD2DTx[4].app[0] packetReceived:count 0
scalar SingleCell_D2D.ueD2DTx[4].app[0] packetReceived:sum(packetBytes) 0
scalar SingleCell_D2D.ueD2DTx[4].app[0] packetSent:count 1
scalar SingleCell_D2D.ueD2DTx[4].app[0] packetSent:sum(packetBytes) 1073741824
scalar SingleCell_D2D.ueD2DRx[0].lo[0].lo rcvdPkFromHl:count 0
scalar SingleCell_D2D.ueD2DRx[0].lo[0].lo rcvdPkFromHl:sum(packetBytes) 0
scalar SingleCell_D2D.ueD2DRx[0].lo[0].lo passedUpPk:count 0
scalar SingleCell_D2D.ueD2DRx[0].lo[0].lo passedUpPk:sum(packetBytes) 0
scalar SingleCell_D2D.ueD2DRx[0].lo[0] packetDropInterfaceDown:count 0
scalar SingleCell_D2D.ueD2DRx[0].lo[0] packetDropInterfaceDown:sum(packetBytes) 0
scalar SingleCell_D2D.ueD2DRx[0].lo[0] packetDropNoCarrier:count 0
scalar SingleCell_D2D.ueD2DRx[0].lo[0] packetDropNoCarrier:sum(packetBytes) 0
scalar SingleCell_D2D.ueD2DRx[0].cellularNic.rlcMux rlcCellThroughputD2D:simu5g_rateavg -nan
scalar SingleCell_D2D.ueD2DRx[0].cellularNic.rlcMux rlcPduThroughputD2D:simu5g_rateavg -nan
scalar SingleCell_D2D.ueD2DRx[0].cellularNic.rlcMux rlcPduDelayD2D:mean -nan
scalar SingleCell_D2D.ueD2DRx[0].cellularNic.rlcMux rlcThroughputD2D:simu5g_rateavg -nan
scalar SingleCell_D2D.ueD2DRx[0].cellularNic.rlcMux rlcDelayD2D:mean -nan
scalar SingleCell_D2D.ueD2DRx[0].cellularNic.rlcMux rlcCellThroughputUl:simu5g_rateavg -nan
scalar SingleCell_D2D.ueD2DRx[0].cellularNic.rlcMux rlcCellThroughputDl:simu5g_rateavg -nan
scalar SingleCell_D2D.ueD2DRx[0].cellularNic.rlcMux rlcPduThroughputUl:simu5g_rateavg 0
scalar SingleCell_D2D.ueD2DRx[0].cellularNic.rlcMux rlcPduThroughputDl:simu5g_rateavg 0
scalar SingleCell_D2D.ueD2DRx[0].cellularNic.rlcMux rlcPduDelayUl:mean 0.0040000000000000027
scalar SingleCell_D2D.ueD2DRx[0].cellularNic.rlcMux rlcPduDelayDl:mean 0.0040000000000000027
scalar SingleCell_D2D.ueD2DRx[0].cellularNic.rlcMux rlcThroughputUl:simu5g_rateavg 10244.607059002479
scalar SingleCell_D2D.ueD2DRx[0].cellularNic.rlcMux rlcThroughputDl:simu5g_rateavg 144862.48883800858
scalar SingleCell_D2D.ueD2DRx[0].cellularNic.rlcMux rlcDelayUl:mean 0.012289800995025088
scalar SingleCell_D2D.ueD2DRx[0].cellularNic.rlcMux rlcDelayDl:mean 0.022789908021481387
scalar SingleCell_D2D.ueD2DRx[0].cellularNic.rlcMux sentPacketToLowerLayer:count 2192
scalar SingleCell_D2D.ueD2DRx[0].cellularNic.rlcMux sentPacketToLowerLayer:sum(packetBytes) 133266
scalar SingleCell_D2D.ueD2DRx[0].cellularNic.rlcMux receivedPacketFromLowerLayer:count 444
scalar SingleCell_D2D.ueD2DRx[0].cellularNic.rlcMux receivedPacketFromLowerLayer:sum(packetBytes) 931675
scalar SingleCell_D2D.ueD2DRx[0].cellularNic.mac harqTxAttemptsUl:mean 1
scalar SingleCell_D2D.ueD2DRx[0].cellularNic.mac harqTxAttemptsDl:mean 1
scalar SingleCell_D2D.ueD2DRx[0].cellularNic.mac harqErrorRate_4th_Ul:mean -nan
scalar SingleCell_D2D.ueD2DRx[0].cellularNic.mac harqErrorRate_4th_Dl:mean -nan
scalar SingleCell_D2D.ueD2DRx[0].cellularNic.mac harqErrorRate_3rd_Ul:mean -nan
scalar SingleCell_D2D.ueD2DRx[0].cellularNic.mac harqErrorRate_3rd_Dl:mean -nan
scalar SingleCell_D2D.ueD2DRx[0].cellularNic.mac harqErrorRate_2nd_Ul:mean -nan
scalar SingleCell_D2D.ueD2DRx[0].cellularNic.mac harqErrorRate_2nd_Dl:mean -nan
scalar SingleCell_D2D.ueD2DRx[0].cellularNic.mac harqErrorRate_1st_Ul:mean 0
scalar SingleCell_D2D.ueD2DRx[0].cellularNic.mac harqErrorRate_1st_Dl:mean 0
scalar SingleCell_D2D.ueD2DRx[0].cellularNic.mac harqErrorRateUl:mean 0
scalar SingleCell_D2D.ueD2DRx[0].cellularNic.mac harqErrorRateDl:mean 0
scalar SingleCell_D2D.ueD2DRx[0].cellularNic.mac macCellPacketLossUl:mean -nan
scalar SingleCell_D2D.ueD2DRx[0].cellularNic.mac macCellPacketLossDl:mean -nan
scalar SingleCell_D2D.ueD2DRx[0].cellularNic.mac macPacketLossUl:mean 0
scalar SingleCell_D2D.ueD2DRx[0].cellularNic.mac macPacketLossDl:mean 0
scalar SingleCell_D2D.ueD2DRx[0].cellularNic.mac macThroughputUl:simu5g_rateavg 10637.730782386454
scalar SingleCell_D2D.ueD2DRx[0].cellularNic.mac macThroughputDl:simu5g_rateavg 146024.32668956491
scalar SingleCell_D2D.ueD2DRx[0].cellularNic.mac macDelayUl:mean 0.0040000000000000027
scalar SingleCell_D2D.ueD2DRx[0].cellularNic.mac macDelayDl:mean 0.0040000000000000027
scalar SingleCell_D2D.ueD2DRx[0].cellularNic.mac macCellThroughputUl:simu5g_rateavg -nan
scalar SingleCell_D2D.ueD2DRx[0].cellularNic.mac macCellThroughputDl:simu5g_rateavg -nan
scalar SingleCell_D2D.ueD2DRx[0].cellularNic.mac sentPacketToLowerLayer:count 1412
scalar SingleCell_D2D.ueD2DRx[0].cellularNic.mac sentPacketToLowerLayer:sum(packetBytes) 69078
scalar SingleCell_D2D.ueD2DRx[0].cellularNic.mac sentPacketToUpperLayer:count 1022
scalar SingleCell_D2D.ueD2DRx[0].cellularNic.mac sentPacketToUpperLayer:sum(packetBytes) 932253
scalar SingleCell_D2D.ueD2DRx[0].cellularNic.mac receivedPacketFromLowerLayer:count 1989
scalar SingleCell_D2D.ueD2DRx[0].cellularNic.mac receivedPacketFromLowerLayer:sum(packetBytes) 934108
scalar SingleCell_D2D.ueD2DRx[0].cellularNic.mac receivedPacketFromUpperLayer:count 2192
scalar SingleCell_D2D.ueD2DRx[0].cellularNic.mac receivedPacketFromUpperLayer:sum(packetBytes) 133266
scalar SingleCell_D2D.ueD2DRx[0].cellularNic.mac macBufferOverFlowD2D:mean -nan
scalar SingleCell_D2D.ueD2DRx[0].cellularNic.mac macBufferOverFlowUl:mean -nan
scalar SingleCell_D2D.ueD2DRx[0].cellularNic.mac macBufferOverFlowDl:mean -nan
scalar SingleCell_D2D.ueD2DRx[0].cellularNic.phy distance:mean -nan
scalar SingleCell_D2D.ueD2DRx[0].cellularNic.phy averageCqiUl:mean 15
scalar SingleCell_D2D.ueD2DRx[0].cellularNic.phy averageCqiUl:count 578
scalar SingleCell_D2D.ueD2DRx[0].cellularNic.phy averageCqiDl:mean 15
scalar SingleCell_D2D.ueD2DRx[0].cellularNic.phy averageCqiDl:count 444
scalar SingleCell_D2D.ueD2DRx[0].cellularNic.channelModel[0] measuredSinrUl:mean 58.563308408798683
scalar SingleCell_D2D.ueD2DRx[0].cellularNic.channelModel[0] measuredSinrDl:mean 90.735040163281795
scalar SingleCell_D2D.ueD2DRx[0].cellularNic.channelModel[0] rcvdSinrD2D:mean -nan
scalar SingleCell_D2D.ueD2DRx[0].cellularNic.channelModel[0] rcvdSinrUl:mean 57.271884310071144
scalar SingleCell_D2D.ueD2DRx[0].cellularNic.channelModel[0] rcvdSinrDl:mean 90.820967099713116
scalar SingleCell_D2D.ueD2DRx[0].cellularNic packetDropInterfaceDown:count 0
scalar SingleCell_D2D.ueD2DRx[0].cellularNic packetDropInterfaceDown:sum(packetBytes) 0
scalar SingleCell_D2D.ueD2DRx[0].cellularNic packetDropNoCarrier:count 0
scalar SingleCell_D2D.ueD2DRx[0].cellularNic packetDropNoCarrier:sum(packetBytes) 0
scalar SingleCell_D2D.ueD2DRx[0].encap pauseSent:count 0
scalar SingleCell_D2D.ueD2DRx[0].encap pauseSent:sum 0
[...]
scalar SingleCell_D2D.ueD2DRx[0].tcp.conn-41 rcvAdv:vector:starttime 0.071000000000000008
scalar SingleCell_D2D.ueD2DRx[0].tcp.conn-41 rcvAdv:vector:endtime 4.9980000000000002
scalar SingleCell_D2D.ueD2DRx[0].tcp.conn-41 sndNxt:vector:count 0
scalar SingleCell_D2D.ueD2DRx[0].tcp.conn-41 sndNxt:vector:sum 0
scalar SingleCell_D2D.ueD2DRx[0].tcp.conn-41 sndNxt:vector:sumweights 0
scalar SingleCell_D2D.ueD2DRx[0].tcp.conn-41 sndNxt:vector:mean -nan
scalar SingleCell_D2D.ueD2DRx[0].tcp.conn-41 sndNxt:vector:stddev nan
scalar SingleCell_D2D.ueD2DRx[0].tcp.conn-41 sndNxt:vector:min inf
scalar SingleCell_D2D.ueD2DRx[0].tcp.conn-41 sndNxt:vector:max -inf
scalar SingleCell_D2D.ueD2DRx[0].tcp.conn-41 sndNxt:vector:starttime nan
scalar SingleCell_D2D.ueD2DRx[0].tcp.conn-41 sndNxt:vector:endtime nan
scalar SingleCell_D2D.ueD2DRx[0].tcp.conn-41 sndAck:vector:count 1614
scalar SingleCell_D2D.ueD2DRx[0].tcp.conn-41 sndAck:vector:sum 720741384
scalar SingleCell_D2D.ueD2DRx[0].tcp.conn-41 sndAck:vector:sumweights 1614
scalar SingleCell_D2D.ueD2DRx[0].tcp.conn-41 sndAck:vector:mean 446556
scalar SingleCell_D2D.ueD2DRx[0].tcp.conn-41 sndAck:vector:stddev 249811.36659487695
scalar SingleCell_D2D.ueD2DRx[0].tcp.conn-41 sndAck:vector:min 14272
scalar SingleCell_D2D.ueD2DRx[0].tcp.conn-41 sndAck:vector:max 878840
scalar SingleCell_D2D.ueD2DRx[0].tcp.conn-41 sndAck:vector:starttime 0.071000000000000008
scalar SingleCell_D2D.ueD2DRx[0].tcp.conn-41 sndAck:vector:endtime 4.9980000000000002
scalar SingleCell_D2D.ueD2DRx[0].tcp.conn-41 rcvSeq:vector:count 1614
scalar SingleCell_D2D.ueD2DRx[0].tcp.conn-41 rcvSeq:vector:sum 719876816
scalar SingleCell_D2D.ueD2DRx[0].tcp.conn-41 rcvSeq:vector:sumweights 1614
scalar SingleCell_D2D.ueD2DRx[0].tcp.conn-41 rcvSeq:vector:mean 446020.33209417597
scalar SingleCell_D2D.ueD2DRx[0].tcp.conn-41 rcvSeq:vector:stddev 249810.79192461338
scalar SingleCell_D2D.ueD2DRx[0].tcp.conn-41 rcvSeq:vector:min 14272
scalar SingleCell_D2D.ueD2DRx[0].tcp.conn-41 rcvSeq:vector:max 878304
scalar SingleCell_D2D.ueD2DRx[0].tcp.conn-41 rcvSeq:vector:starttime 0.099000000000000005
scalar SingleCell_D2D.ueD2DRx[0].tcp.conn-41 rcvSeq:vector:endtime 4.9980000000000002
scalar SingleCell_D2D.ueD2DRx[0].tcp.conn-41 rcvAck:vector:count 1614
scalar SingleCell_D2D.ueD2DRx[0].tcp.conn-41 rcvAck:vector:sum 28650114
scalar SingleCell_D2D.ueD2DRx[0].tcp.conn-41 rcvAck:vector:sumweights 1614
scalar SingleCell_D2D.ueD2DRx[0].tcp.conn-41 rcvAck:vector:mean 17751
scalar SingleCell_D2D.ueD2DRx[0].tcp.conn-41 rcvAck:vector:stddev 0
scalar SingleCell_D2D.ueD2DRx[0].tcp.conn-41 rcvAck:vector:min 17751
scalar SingleCell_D2D.ueD2DRx[0].tcp.conn-41 rcvAck:vector:max 17751
scalar SingleCell_D2D.ueD2DRx[0].tcp.conn-41 rcvAck:vector:starttime 0.099000000000000005
scalar SingleCell_D2D.ueD2DRx[0].tcp.conn-41 rcvAck:vector:endtime 4.9980000000000002
scalar SingleCell_D2D.ueD2DRx[0].tcp.conn-41 unacked:vector:count 1
scalar SingleCell_D2D.ueD2DRx[0].tcp.conn-41 unacked:vector:sum 0
scalar SingleCell_D2D.ueD2DRx[0].tcp.conn-41 unacked:vector:sumweights 1
scalar SingleCell_D2D.ueD2DRx[0].tcp.conn-41 unacked:vector:mean 0
scalar SingleCell_D2D.ueD2DRx[0].tcp.conn-41 unacked:vector:stddev nan
scalar SingleCell_D2D.ueD2DRx[0].tcp.conn-41 unacked:vector:min 0
scalar SingleCell_D2D.ueD2DRx[0].tcp.conn-41 unacked:vector:max 0
scalar SingleCell_D2D.ueD2DRx[0].tcp.conn-41 unacked:vector:starttime 0.099000000000000005
scalar SingleCell_D2D.ueD2DRx[0].tcp.conn-41 unacked:vector:endtime 0.099000000000000005
scalar SingleCell_D2D.ueD2DRx[0].tcp.conn-41 dupAcks:vector:count 1613
scalar SingleCell_D2D.ueD2DRx[0].tcp.conn-41 dupAcks:vector:sum 0
scalar SingleCell_D2D.ueD2DRx[0].tcp.conn-41 dupAcks:vector:sumweights 1613
scalar SingleCell_D2D.ueD2DRx[0].tcp.conn-41 dupAcks:vector:mean 0
scalar SingleCell_D2D.ueD2DRx[0].tcp.conn-41 dupAcks:vector:stddev 0
scalar SingleCell_D2D.ueD2DRx[0].tcp.conn-41 dupAcks:vector:min 0
scalar SingleCell_D2D.ueD2DRx[0].tcp.conn-41 dupAcks:vector:max 0
scalar SingleCell_D2D.ueD2DRx[0].tcp.conn-41 dupAcks:vector:starttime 0.29799999999999999
scalar SingleCell_D2D.ueD2DRx[0].tcp.conn-41 dupAcks:vector:endtime 4.9980000000000002
scalar SingleCell_D2D.ueD2DRx[0].tcp.conn-41 pipe:vector:count 0
scalar SingleCell_D2D.ueD2DRx[0].tcp.conn-41 pipe:vector:sum 0
scalar SingleCell_D2D.ueD2DRx[0].tcp.conn-41 pipe:vector:sumweights 0
scalar SingleCell_D2D.ueD2DRx[0].tcp.conn-41 pipe:vector:mean -nan
scalar SingleCell_D2D.ueD2DRx[0].tcp.conn-41 pipe:vector:stddev nan
scalar SingleCell_D2D.ueD2DRx[0].tcp.conn-41 pipe:vector:min inf
scalar SingleCell_D2D.ueD2DRx[0].tcp.conn-41 pipe:vector:max -inf
scalar SingleCell_D2D.ueD2DRx[0].tcp.conn-41 pipe:vector:starttime nan
scalar SingleCell_D2D.ueD2DRx[0].tcp.conn-41 pipe:vector:endtime nan
scalar SingleCell_D2D.ueD2DRx[0].tcp.conn-41 sndSacks:vector:count 0
scalar SingleCell_D2D.ueD2DRx[0].tcp.conn-41 sndSacks:vector:sum 0
scalar SingleCell_D2D.ueD2DRx[0].tcp.conn-41 sndSacks:vector:sumweights 0
scalar SingleCell_D2D.ueD2DRx[0].tcp.conn-41 sndSacks:vector:mean -nan
scalar SingleCell_D2D.ueD2DRx[0].tcp.conn-41 sndSacks:vector:stddev nan
scalar SingleCell_D2D.ueD2DRx[0].tcp.conn-41 sndSacks:vector:min inf
scalar SingleCell_D2D.ueD2DRx[0].tcp.conn-41 sndSacks:vector:max -inf
scalar SingleCell_D2D.ueD2DRx[0].tcp.conn-41 sndSacks:vector:starttime nan
scalar SingleCell_D2D.ueD2DRx[0].tcp.conn-41 sndSacks:vector:endtime nan
scalar SingleCell_D2D.ueD2DRx[0].tcp.conn-41 rcvSacks:vector:count 0
scalar SingleCell_D2D.ueD2DRx[0].tcp.conn-41 rcvSacks:vector:sum 0
scalar SingleCell_D2D.ueD2DRx[0].tcp.conn-41 rcvSacks:vector:sumweights 0
scalar SingleCell_D2D.ueD2DRx[0].tcp.conn-41 rcvSacks:vector:mean -nan
scalar SingleCell_D2D.ueD2DRx[0].tcp.conn-41 rcvSacks:vector:stddev nan
scalar SingleCell_D2D.ueD2DRx[0].tcp.conn-41 rcvSacks:vector:min inf
scalar SingleCell_D2D.ueD2DRx[0].tcp.conn-41 rcvSacks:vector:max -inf
scalar SingleCell_D2D.ueD2DRx[0].tcp.conn-41 rcvSacks:vector:starttime nan
scalar SingleCell_D2D.ueD2DRx[0].tcp.conn-41 rcvSacks:vector:endtime nan
scalar SingleCell_D2D.ueD2DRx[0].tcp.conn-41 rcvOooSeg:vector:count 0
scalar SingleCell_D2D.ueD2DRx[0].tcp.conn-41 rcvOooSeg:vector:sum 0
scalar SingleCell_D2D.ueD2DRx[0].tcp.conn-41 rcvOooSeg:vector:sumweights 0
scalar SingleCell_D2D.ueD2DRx[0].tcp.conn-41 rcvOooSeg:vector:mean -nan
scalar SingleCell_D2D.ueD2DRx[0].tcp.conn-41 rcvOooSeg:vector:stddev nan
scalar SingleCell_D2D.ueD2DRx[0].tcp.conn-41 rcvOooSeg:vector:min inf
scalar SingleCell_D2D.ueD2DRx[0].tcp.conn-41 rcvOooSeg:vector:max -inf
scalar SingleCell_D2D.ueD2DRx[0].tcp.conn-41 rcvOooSeg:vector:starttime nan
scalar SingleCell_D2D.ueD2DRx[0].tcp.conn-41 rcvOooSeg:vector:endtime nan
scalar SingleCell_D2D.ueD2DRx[0].tcp.conn-41 rcvNASeg:vector:count 0
scalar SingleCell_D2D.ueD2DRx[0].tcp.conn-41 rcvNASeg:vector:sum 0
scalar SingleCell_D2D.ueD2DRx[0].tcp.conn-41 rcvNASeg:vector:sumweights 0
scalar SingleCell_D2D.ueD2DRx[0].tcp.conn-41 rcvNASeg:vector:mean -nan
scalar SingleCell_D2D.ueD2DRx[0].tcp.conn-41 rcvNASeg:vector:stddev nan
scalar SingleCell_D2D.ueD2DRx[0].tcp.conn-41 rcvNASeg:vector:min inf
scalar SingleCell_D2D.ueD2DRx[0].tcp.conn-41 rcvNASeg:vector:max -inf
scalar SingleCell_D2D.ueD2DRx[0].tcp.conn-41 rcvNASeg:vector:starttime nan
scalar SingleCell_D2D.ueD2DRx[0].tcp.conn-41 rcvNASeg:vector:endtime nan
scalar SingleCell_D2D.ueD2DRx[0].tcp.conn-41 sackedBytes:vector:count 0
scalar SingleCell_D2D.ueD2DRx[0].tcp.conn-41 sackedBytes:vector:sum 0
scalar SingleCell_D2D.ueD2DRx[0].tcp.conn-41 sackedBytes:vector:sumweights 0
scalar SingleCell_D2D.ueD2DRx[0].tcp.conn-41 sackedBytes:vector:mean -nan
scalar SingleCell_D2D.ueD2DRx[0].tcp.conn-41 sackedBytes:vector:stddev nan
scalar SingleCell_D2D.ueD2DRx[0].tcp.conn-41 sackedBytes:vector:min inf
scalar SingleCell_D2D.ueD2DRx[0].tcp.conn-41 sackedBytes:vector:max -inf
scalar SingleCell_D2D.ueD2DRx[0].tcp.conn-41 sackedBytes:vector:starttime nan
scalar SingleCell_D2D.ueD2DRx[0].tcp.conn-41 sackedBytes:vector:endtime nan
scalar SingleCell_D2D.ueD2DRx[0].tcp.conn-41 tcpRcvQueueBytes:vector:count 3227
scalar SingleCell_D2D.ueD2DRx[0].tcp.conn-41 tcpRcvQueueBytes:vector:sum 0
scalar SingleCell_D2D.ueD2DRx[0].tcp.conn-41 tcpRcvQueueBytes:vector:sumweights 3227
scalar SingleCell_D2D.ueD2DRx[0].tcp.conn-41 tcpRcvQueueBytes:vector:mean 0
scalar SingleCell_D2D.ueD2DRx[0].tcp.conn-41 tcpRcvQueueBytes:vector:stddev 0
scalar SingleCell_D2D.ueD2DRx[0].tcp.conn-41 tcpRcvQueueBytes:vector:min 0
scalar SingleCell_D2D.ueD2DRx[0].tcp.conn-41 tcpRcvQueueBytes:vector:max 0
scalar SingleCell_D2D.ueD2DRx[0].tcp.conn-41 tcpRcvQueueBytes:vector:starttime 0.071000000000000008
scalar SingleCell_D2D.ueD2DRx[0].tcp.conn-41 tcpRcvQueueBytes:vector:endtime 4.9980000000000002
scalar SingleCell_D2D.ueD2DRx[0].tcp.conn-41 tcpRcvQueueDrops:vector:count 0
scalar SingleCell_D2D.ueD2DRx[0].tcp.conn-41 tcpRcvQueueDrops:vector:sum 0
scalar SingleCell_D2D.ueD2DRx[0].tcp.conn-41 tcpRcvQueueDrops:vector:sumweights 0
scalar SingleCell_D2D.ueD2DRx[0].tcp.conn-41 tcpRcvQueueDrops:vector:mean -nan
scalar SingleCell_D2D.ueD2DRx[0].tcp.conn-41 tcpRcvQueueDrops:vector:stddev nan
scalar SingleCell_D2D.ueD2DRx[0].tcp.conn-41 tcpRcvQueueDrops:vector:min inf
scalar SingleCell_D2D.ueD2DRx[0].tcp.conn-41 tcpRcvQueueDrops:vector:max -inf
scalar SingleCell_D2D.ueD2DRx[0].tcp.conn-41 tcpRcvQueueDrops:vector:starttime nan
scalar SingleCell_D2D.ueD2DRx[0].tcp.conn-41 tcpRcvQueueDrops:vector:endtime nan
scalar SingleCell_D2D.ueD2DRx[0].tcp.conn-41 tcpRcvPayloadBytes:vector:count 1614
scalar SingleCell_D2D.ueD2DRx[0].tcp.conn-41 tcpRcvPayloadBytes:vector:sum 864568
scalar SingleCell_D2D.ueD2DRx[0].tcp.conn-41 tcpRcvPayloadBytes:vector:sumweights 1614
scalar SingleCell_D2D.ueD2DRx[0].tcp.conn-41 tcpRcvPayloadBytes:vector:mean 535.66790582403962
scalar SingleCell_D2D.ueD2DRx[0].tcp.conn-41 tcpRcvPayloadBytes:vector:stddev 13.341756942575223
scalar SingleCell_D2D.ueD2DRx[0].tcp.conn-41 tcpRcvPayloadBytes:vector:min 0
scalar SingleCell_D2D.ueD2DRx[0].tcp.conn-41 tcpRcvPayloadBytes:vector:max 536
scalar SingleCell_D2D.ueD2DRx[0].tcp.conn-41 tcpRcvPayloadBytes:vector:starttime 0.099000000000000005
scalar SingleCell_D2D.ueD2DRx[0].tcp.conn-41 tcpRcvPayloadBytes:vector:endtime 4.9980000000000002
scalar SingleCell_D2D.ueD2DRx[0].tcp.conn-41 cwnd:vector:count 0
scalar SingleCell_D2D.ueD2DRx[0].tcp.conn-41 cwnd:vector:sum 0
scalar SingleCell_D2D.ueD2DRx[0].tcp.conn-41 cwnd:vector:sumweights 0
scalar SingleCell_D2D.ueD2DRx[0].tcp.conn-41 cwnd:vector:mean -nan
scalar SingleCell_D2D.ueD2DRx[0].tcp.conn-41 cwnd:vector:stddev nan
scalar SingleCell_D2D.ueD2DRx[0].tcp.conn-41 cwnd:vector:min inf
scalar SingleCell_D2D.ueD2DRx[0].tcp.conn-41 cwnd:vector:max -inf
scalar SingleCell_D2D.ueD2DRx[0].tcp.conn-41 cwnd:vector:starttime nan
scalar SingleCell_D2D.ueD2DRx[0].tcp.conn-41 cwnd:vector:endtime nan
scalar SingleCell_D2D.ueD2DRx[0].tcp.conn-41 ssthresh:vector:count 0
scalar SingleCell_D2D.ueD2DRx[0].tcp.conn-41 ssthresh:vector:sum 0
scalar SingleCell_D2D.ueD2DRx[0].tcp.conn-41 ssthresh:vector:sumweights 0
scalar SingleCell_D2D.ueD2DRx[0].tcp.conn-41 ssthresh:vector:mean -nan
scalar SingleCell_D2D.ueD2DRx[0].tcp.conn-41 ssthresh:vector:stddev nan
scalar SingleCell_D2D.ueD2DRx[0].tcp.conn-41 ssthresh:vector:min inf
scalar SingleCell_D2D.ueD2DRx[0].tcp.conn-41 ssthresh:vector:max -inf
scalar SingleCell_D2D.ueD2DRx[0].tcp.conn-41 ssthresh:vector:starttime nan
scalar SingleCell_D2D.ueD2DRx[0].tcp.conn-41 ssthresh:vector:endtime nan
scalar SingleCell_D2D.ueD2DRx[0].tcp.conn-41 rtt:vector:count 0
scalar SingleCell_D2D.ueD2DRx[0].tcp.conn-41 rtt:vector:sum 0
scalar SingleCell_D2D.ueD2DRx[0].tcp.conn-41 rtt:vector:sumweights 0
scalar SingleCell_D2D.ueD2DRx[0].tcp.conn-41 rtt:vector:mean -nan
scalar SingleCell_D2D.ueD2DRx[0].tcp.conn-41 rtt:vector:stddev nan
scalar SingleCell_D2D.ueD2DRx[0].tcp.conn-41 rtt:vector:min inf
scalar SingleCell_D2D.ueD2DRx[0].tcp.conn-41 rtt:vector:max -inf
scalar SingleCell_D2D.ueD2DRx[0].tcp.conn-41 rtt:vector:starttime nan
scalar SingleCell_D2D.ueD2DRx[0].tcp.conn-41 rtt:vector:endtime nan
scalar SingleCell_D2D.ueD2DRx[0].tcp.conn-41 srtt:vector:count 0
scalar SingleCell_D2D.ueD2DRx[0].tcp.conn-41 srtt:vector:sum 0
scalar SingleCell_D2D.ueD2DRx[0].tcp.conn-41 srtt:vector:sumweights 0
scalar SingleCell_D2D.ueD2DRx[0].tcp.conn-41 srtt:vector:mean -nan
scalar SingleCell_D2D.ueD2DRx[0].tcp.conn-41 srtt:vector:stddev nan
scalar SingleCell_D2D.ueD2DRx[0].tcp.conn-41 srtt:vector:min inf
scalar SingleCell_D2D.ueD2DRx[0].tcp.conn-41 srtt:vector:max -inf
scalar SingleCell_D2D.ueD2DRx[0].tcp.conn-41 srtt:vector:starttime nan
scalar SingleCell_D2D.ueD2DRx[0].tcp.conn-41 srtt:vector:endtime nan
scalar SingleCell_D2D.ueD2DRx[0].tcp.conn-41 rttvar:vector:count 0
scalar SingleCell_D2D.ueD2DRx[0].tcp.conn-41 rttvar:vector:sum 0
scalar SingleCell_D2D.ueD2DRx[0].tcp.conn-41 rttvar:vector:sumweights 0
scalar SingleCell_D2D.ueD2DRx[0].tcp.conn-41 rttvar:vector:mean -nan
scalar SingleCell_D2D.ueD2DRx[0].tcp.conn-41 rttvar:vector:stddev nan
scalar SingleCell_D2D.ueD2DRx[0].tcp.conn-41 rttvar:vector:min inf
scalar SingleCell_D2D.ueD2DRx[0].tcp.conn-41 rttvar:vector:max -inf
scalar SingleCell_D2D.ueD2DRx[0].tcp.conn-41 rttvar:vector:starttime nan
scalar SingleCell_D2D.ueD2DRx[0].tcp.conn-41 rttvar:vector:endtime nan
scalar SingleCell_D2D.ueD2DRx[0].tcp.conn-41 rto:vector:count 0
scalar SingleCell_D2D.ueD2DRx[0].tcp.conn-41 rto:vector:sum 0
scalar SingleCell_D2D.ueD2DRx[0].tcp.conn-41 rto:vector:sumweights 0
scalar SingleCell_D2D.ueD2DRx[0].tcp.conn-41 rto:vector:mean -nan
scalar SingleCell_D2D.ueD2DRx[0].tcp.conn-41 rto:vector:stddev nan
scalar SingleCell_D2D.ueD2DRx[0].tcp.conn-41 rto:vector:min inf
scalar SingleCell_D2D.ueD2DRx[0].tcp.conn-41 rto:vector:max -inf
scalar SingleCell_D2D.ueD2DRx[0].tcp.conn-41 rto:vector:starttime nan
scalar SingleCell_D2D.ueD2DRx[0].tcp.conn-41 rto:vector:endtime nan
scalar SingleCell_D2D.ueD2DRx[0].tcp.conn-41 numRtos:vector:count 0
scalar SingleCell_D2D.ueD2DRx[0].tcp.conn-41 numRtos:vector:sum 0
scalar SingleCell_D2D.ueD2DRx[0].tcp.conn-41 numRtos:vector:sumweights 0
scalar SingleCell_D2D.ueD2DRx[0].tcp.conn-41 numRtos:vector:mean -nan
scalar SingleCell_D2D.ueD2DRx[0].tcp.conn-41 numRtos:vector:stddev nan
scalar SingleCell_D2D.ueD2DRx[0].tcp.conn-41 numRtos:vector:min inf
scalar SingleCell_D2D.ueD2DRx[0].tcp.conn-41 numRtos:vector:max -inf
scalar SingleCell_D2D.ueD2DRx[0].tcp.conn-41 numRtos:vector:starttime nan
scalar SingleCell_D2D.ueD2DRx[0].tcp.conn-41 numRtos:vector:endtime nan
scalar SingleCell_D2D.ueD2DRx[0].tcp.conn-41 load:vector:count 0
scalar SingleCell_D2D.ueD2DRx[0].tcp.conn-41 load:vector:sum 0
scalar SingleCell_D2D.ueD2DRx[0].tcp.conn-41 load:vector:sumweights 0
scalar SingleCell_D2D.ueD2DRx[0].tcp.conn-41 load:vector:mean -nan
scalar SingleCell_D2D.ueD2DRx[0].tcp.conn-41 load:vector:stddev nan
scalar SingleCell_D2D.ueD2DRx[0].tcp.conn-41 load:vector:min inf
scalar SingleCell_D2D.ueD2DRx[0].tcp.conn-41 load:vector:max -inf
scalar SingleCell_D2D.ueD2DRx[0].tcp.conn-41 load:vector:starttime nan
scalar SingleCell_D2D.ueD2DRx[0].tcp.conn-41 load:vector:endtime nan
scalar SingleCell_D2D.ueD2DRx[0].tcp.conn-41 calcLoad:vector:count 0
scalar SingleCell_D2D.ueD2DRx[0].tcp.conn-41 calcLoad:vector:sum 0
scalar SingleCell_D2D.ueD2DRx[0].tcp.conn-41 calcLoad:vector:sumweights 0
scalar SingleCell_D2D.ueD2DRx[0].tcp.conn-41 calcLoad:vector:mean -nan
scalar SingleCell_D2D.ueD2DRx[0].tcp.conn-41 calcLoad:vector:stddev nan
scalar SingleCell_D2D.ueD2DRx[0].tcp.conn-41 calcLoad:vector:min inf
scalar SingleCell_D2D.ueD2DRx[0].tcp.conn-41 calcLoad:vector:max -inf
scalar SingleCell_D2D.ueD2DRx[0].tcp.conn-41 calcLoad:vector:starttime nan
scalar SingleCell_D2D.ueD2DRx[0].tcp.conn-41 calcLoad:vector:endtime nan
scalar SingleCell_D2D.ueD2DRx[0].tcp.conn-41 markingProb:vector:count 0
scalar SingleCell_D2D.ueD2DRx[0].tcp.conn-41 markingProb:vector:sum 0
scalar SingleCell_D2D.ueD2DRx[0].tcp.conn-41 markingProb:vector:sumweights 0
scalar SingleCell_D2D.ueD2DRx[0].tcp.conn-41 markingProb:vector:mean -nan
scalar SingleCell_D2D.ueD2DRx[0].tcp.conn-41 markingProb:vector:stddev nan
scalar SingleCell_D2D.ueD2DRx[0].tcp.conn-41 markingProb:vector:min inf
scalar SingleCell_D2D.ueD2DRx[0].tcp.conn-41 markingProb:vector:max -inf
scalar SingleCell_D2D.ueD2DRx[0].tcp.conn-41 markingProb:vector:starttime nan
scalar SingleCell_D2D.ueD2DRx[0].tcp.conn-41 markingProb:vector:endtime nan
scalar SingleCell_D2D.ueD2DRx[3].app[0].thread_39 packetReceived:vector(packetBytes):count 1607
scalar SingleCell_D2D.ueD2DRx[3].app[0].thread_39 packetReceived:vector(packetBytes):sum 861352
scalar SingleCell_D2D.ueD2DRx[3].app[0].thread_39 packetReceived:vector(packetBytes):sumweights 1607
scalar SingleCell_D2D.ueD2DRx[3].app[0].thread_39 packetReceived:vector(packetBytes):mean 536
scalar SingleCell_D2D.ueD2DRx[3].app[0].thread_39 packetReceived:vector(packetBytes):stddev 0
scalar SingleCell_D2D.ueD2DRx[3].app[0].thread_39 packetReceived:vector(packetBytes):min 536
scalar SingleCell_D2D.ueD2DRx[3].app[0].thread_39 packetReceived:vector(packetBytes):max 536
scalar SingleCell_D2D.ueD2DRx[3].app[0].thread_39 packetReceived:vector(packetBytes):starttime 0.31900000000000001
scalar SingleCell_D2D.ueD2DRx[3].app[0].thread_39 packetReceived:vector(packetBytes):endtime 4.9939999999999998
scalar SingleCell_D2D.ueD2DRx[3].app[0].thread_39 endToEndDelay:vector:count 1607
scalar SingleCell_D2D.ueD2DRx[3].app[0].thread_39 endToEndDelay:vector:sum 3857.1883642092835
scalar SingleCell_D2D.ueD2DRx[3].app[0].thread_39 endToEndDelay:vector:sumweights 1607
scalar SingleCell_D2D.ueD2DRx[3].app[0].thread_39 endToEndDelay:vector:mean 2.4002416703231386
scalar SingleCell_D2D.ueD2DRx[3].app[0].thread_39 endToEndDelay:vector:stddev 1.3302151824575341
scalar SingleCell_D2D.ueD2DRx[3].app[0].thread_39 endToEndDelay:vector:min 0.019613170012000001
scalar SingleCell_D2D.ueD2DRx[3].app[0].thread_39 endToEndDelay:vector:max 4.6946131700119995
scalar SingleCell_D2D.ueD2DRx[3].app[0].thread_39 endToEndDelay:vector:starttime 0.31900000000000001
scalar SingleCell_D2D.ueD2DRx[3].app[0].thread_39 endToEndDelay:vector:endtime 4.9939999999999998
scalar SingleCell_D2D.ueD2DRx[0].app[0].thread_41 packetReceived:vector(packetBytes):count 1613
scalar SingleCell_D2D.ueD2DRx[0].app[0].thread_41 packetReceived:vector(packetBytes):sum 864568
scalar SingleCell_D2D.ueD2DRx[0].app[0].thread_41 packetReceived:vector(packetBytes):sumweights 1613
scalar SingleCell_D2D.ueD2DRx[0].app[0].thread_41 packetReceived:vector(packetBytes):mean 536
scalar SingleCell_D2D.ueD2DRx[0].app[0].thread_41 packetReceived:vector(packetBytes):stddev 0
scalar SingleCell_D2D.ueD2DRx[0].app[0].thread_41 packetReceived:vector(packetBytes):min 536
scalar SingleCell_D2D.ueD2DRx[0].app[0].thread_41 packetReceived:vector(packetBytes):max 536
scalar SingleCell_D2D.ueD2DRx[0].app[0].thread_41 packetReceived:vector(packetBytes):starttime 0.29799999999999999
scalar SingleCell_D2D.ueD2DRx[0].app[0].thread_41 packetReceived:vector(packetBytes):endtime 4.9980000000000002
scalar SingleCell_D2D.ueD2DRx[0].app[0].thread_41 endToEndDelay:vector:count 1613
scalar SingleCell_D2D.ueD2DRx[0].app[0].thread_41 endToEndDelay:vector:sum 3926.4080018010281
scalar SingleCell_D2D.ueD2DRx[0].app[0].thread_41 endToEndDelay:vector:sumweights 1613
scalar SingleCell_D2D.ueD2DRx[0].app[0].thread_41 endToEndDelay:vector:mean 2.4342269075021874
scalar SingleCell_D2D.ueD2DRx[0].app[0].thread_41 endToEndDelay:vector:stddev 1.3321036698272497
scalar SingleCell_D2D.ueD2DRx[0].app[0].thread_41 endToEndDelay:vector:min 0.019785493987
scalar SingleCell_D2D.ueD2DRx[0].app[0].thread_41 endToEndDelay:vector:max 4.7197854939869996
scalar SingleCell_D2D.ueD2DRx[0].app[0].thread_41 endToEndDelay:vector:starttime 0.29799999999999999
scalar SingleCell_D2D.ueD2DRx[0].app[0].thread_41 endToEndDelay:vector:endtime 4.9980000000000002

