version 3
run MultiplePairs-TCP-Infra-0-20260709-21:29:20-650419
attr configname MultiplePairs-TCP-Infra
attr datetime 20260709-21:29:20
attr datetimef 20260709-212920
attr experiment MultiplePairs-TCP-Infra
attr inifile omnetpp.ini
attr iterationvars $numPairs=5
attr iterationvarsd numPairs=5
attr iterationvarsf numPairs=5-
attr measurement $numPairs=5
attr network simu5g.simulations.lte.networks.SingleCell_D2D
attr processid 650419
attr repetition 0
attr replication #0
attr resultdir results
attr runnumber 0
attr seedset 0
itervar numPairs 5
config **.param-recording false
config image-path /home/andras/projects/Simu5G-fork/simu5g-fork/images
config output-scalar-file results/omnetpp.ini-MultiplePairs-TCP-Infra-#0.sca
config output-scalar-precision 17
config output-vector-file results/omnetpp.ini-MultiplePairs-TCP-Infra-#0.vec
config output-vector-precision 17
config record-eventlog false
config sim-time-limit 5s
config extends MultiplePairs
config *.ueD2D*[*].numApps 1
config *.ueD2DTx[*].app[*].typename TcpSessionApp
config *.ueD2DTx[*].app[*].connectPort 1000
config *.ueD2DTx[*].app[*].localPort 1000
config *.ueD2DTx[*].app[*].sendBytes 1GiB
config *.ueD2DTx[*].app[*].active true
config *.ueD2DTx[*].app[*].tOpen uniform(0.010s,0.1s)
config *.ueD2DTx[*].app[*].tSend uniform(0.15s,0.5s)
config *.ueD2DTx[*].app[*].connectAddress "\"ueD2DRx[\" + string(ancestorIndex(1)) + \"]\""
config *.ueD2DTx[*].app[*].localAddress "\"ueD2DTx[\" + string(ancestorIndex(1)) + \"]\""
config *.ueD2DRx[*].app[*].typename TcpSinkApp
config *.ueD2DRx[*].app[*].localPort 1000
config **.app[*].tClose -1s
config *.eNB*.cellularNic.typename LteNicEnb
config *.ueD2D*[*].cellularNic.typename LteNicUe
config **.amcMode "\"AUTO\""
config network simu5g.simulations.lte.networks.SingleCell_D2D
config *.eNB.mobility.initFromDisplayString false
config *.eNB.mobility.initialX 300m
config *.eNB.mobility.initialY 300m
config *.numUeCell 0
config *.numUeD2DTx 5
config *.numUeD2DRx 5
config *.ue*[*].macCellId 1
config *.ue*[*].masterId 1
config *.ue*[*].mobility.initFromDisplayString false
config *.ueD2D*[*].mobility.initialX uniform(290m,310m)
config *.ueD2D*[*].mobility.initialY uniform(340m,350m)
config sim-time-limit 5s
config warmup-period 0s
config repeat 3
config **.routingRecorder.enabled false
config output-scalar-file results/MultiplePairs-TCP-Infra/0.sca
config output-vector-file results/MultiplePairs-TCP-Infra/0.vec
config seed-set 0
config **.vector-recording true
config **.mobility.constraintAreaMinZ 0m
config **.mobility.constraintAreaMaxZ 0m
config **.numBands 50
config *.configurator.config "xmldoc(\"./demo.xml\")"

scalar SingleCell_D2D.server.lo[0].lo rcvdPkFromHl:count 0
scalar SingleCell_D2D.server.lo[0].lo rcvdPkFromHl:sum(packetBytes) 0
scalar SingleCell_D2D.server.lo[0].lo passedUpPk:count 0
scalar SingleCell_D2D.server.lo[0].lo passedUpPk:sum(packetBytes) 0
scalar SingleCell_D2D.server.lo[0] packetDropInterfaceDown:count 0
scalar SingleCell_D2D.server.lo[0] packetDropInterfaceDown:sum(packetBytes) 0
scalar SingleCell_D2D.server.lo[0] packetDropNoCarrier:count 0
scalar SingleCell_D2D.server.lo[0] packetDropNoCarrier:sum(packetBytes) 0
scalar SingleCell_D2D.server.ppp[0].queue queueLength:last 0
scalar SingleCell_D2D.server.ppp[0].queue queueLength:max 0
scalar SingleCell_D2D.server.ppp[0].queue queueLength:timeavg 0
scalar SingleCell_D2D.server.ppp[0].queue queueBitLength:last 0
scalar SingleCell_D2D.server.ppp[0].queue queueBitLength:max 0
scalar SingleCell_D2D.server.ppp[0].queue queueBitLength:timeavg 0
scalar SingleCell_D2D.server.ppp[0].queue outgoingPackets:count 0
scalar SingleCell_D2D.server.ppp[0].queue outgoingPacketLengths:sum 0
scalar SingleCell_D2D.server.ppp[0].queue incomingPackets:count 0
scalar SingleCell_D2D.server.ppp[0].queue incomingPacketLengths:sum 0
scalar SingleCell_D2D.server.ppp[0].queue droppedPacketsQueueOverflow:count 0
scalar SingleCell_D2D.server.ppp[0].queue droppedPacketLengthsQueueOverflow:sum 0
scalar SingleCell_D2D.server.ppp[0].ppp transmissionState:timeavg 0
scalar SingleCell_D2D.server.ppp[0].ppp rxPkOk:count 0
scalar SingleCell_D2D.server.ppp[0].ppp rxPkOk:sum(packetBytes) 0
scalar SingleCell_D2D.server.ppp[0].ppp txPk:count 0
scalar SingleCell_D2D.server.ppp[0].ppp txPk:sum(packetBytes) 0
scalar SingleCell_D2D.server.ppp[0].ppp rcvdPkFromHl:count 0
scalar SingleCell_D2D.server.ppp[0].ppp rcvdPkFromHl:sum(packetBytes) 0
scalar SingleCell_D2D.server.ppp[0].ppp passedUpPk:count 0
scalar SingleCell_D2D.server.ppp[0].ppp passedUpPk:sum(packetBytes) 0
scalar SingleCell_D2D.server.ppp[0].ppp packetDropIncorrectlyReceived:count 0
scalar SingleCell_D2D.server.ppp[0].ppp packetDropIncorrectlyReceived:sum(packetBytes) 0
scalar SingleCell_D2D.server.ppp[0].ppp packetDropInterfaceDown:count 0
scalar SingleCell_D2D.server.ppp[0].ppp packetDropInterfaceDown:sum(packetBytes) 0
scalar SingleCell_D2D.server.ppp[0] packetDropInterfaceDown:count 0
scalar SingleCell_D2D.server.ppp[0] packetDropInterfaceDown:sum(packetBytes) 0
scalar SingleCell_D2D.server.ppp[0] packetDropNoCarrier:count 0
scalar SingleCell_D2D.server.ppp[0] packetDropNoCarrier:sum(packetBytes) 0
scalar SingleCell_D2D.server.ipv4.ip packetDropAddressResolutionFailed:count 0
scalar SingleCell_D2D.server.ipv4.ip packetDropAddressResolutionFailed:sum(packetBytes) 0
scalar SingleCell_D2D.server.ipv4.ip packetDropHopLimitReached:count 0
scalar SingleCell_D2D.server.ipv4.ip packetDropHopLimitReached:sum(packetBytes) 0
scalar SingleCell_D2D.server.ipv4.ip packetDropForwardingDisabled:count 0
scalar SingleCell_D2D.server.ipv4.ip packetDropForwardingDisabled:sum(packetBytes) 0
scalar SingleCell_D2D.server.ipv4.ip packetDropNoInterfaceFound:count 0
scalar SingleCell_D2D.server.ipv4.ip packetDropNoInterfaceFound:sum(packetBytes) 0
scalar SingleCell_D2D.server.ipv4.ip packetDropNoRouteFound:count 0
scalar SingleCell_D2D.server.ipv4.ip packetDropNoRouteFound:sum(packetBytes) 0
scalar SingleCell_D2D.server.ipv4.ip packetDropUndefined:count 0
scalar SingleCell_D2D.server.ipv4.ip packetDropUndefined:sum(packetBytes) 0
scalar SingleCell_D2D.server.ipv4.arp arpResolutionFailed:count 0
scalar SingleCell_D2D.server.ipv4.arp arpResolutionCompleted:count 0
scalar SingleCell_D2D.server.ipv4.arp arpResolutionInitiated:count 0
scalar SingleCell_D2D.server.ipv4.arp arpReplySent:count 0
scalar SingleCell_D2D.server.ipv4.arp arpReplySent:sum(packetBytes) 0
scalar SingleCell_D2D.server.ipv4.arp arpRequestSent:count 0
scalar SingleCell_D2D.server.ipv4.arp arpRequestSent:sum(packetBytes) 0
scalar SingleCell_D2D.server.udp packetReceived:count 0
scalar SingleCell_D2D.server.udp packetReceived:sum(packetBytes) 0
scalar SingleCell_D2D.server.udp packetSent:count 0
scalar SingleCell_D2D.server.udp packetSent:sum(packetBytes) 0
scalar SingleCell_D2D.server.udp passedUpPk:count 0
scalar SingleCell_D2D.server.udp droppedPkWrongPort:count 0
scalar SingleCell_D2D.server.udp droppedPkBadChecksum:count 0
scalar SingleCell_D2D.router.lo[0].lo rcvdPkFromHl:count 0
scalar SingleCell_D2D.router.lo[0].lo rcvdPkFromHl:sum(packetBytes) 0
scalar SingleCell_D2D.router.lo[0].lo passedUpPk:count 0
scalar SingleCell_D2D.router.lo[0].lo passedUpPk:sum(packetBytes) 0
scalar SingleCell_D2D.router.lo[0] packetDropInterfaceDown:count 0
scalar SingleCell_D2D.router.lo[0] packetDropInterfaceDown:sum(packetBytes) 0
scalar SingleCell_D2D.router.lo[0] packetDropNoCarrier:count 0
scalar SingleCell_D2D.router.lo[0] packetDropNoCarrier:sum(packetBytes) 0
scalar SingleCell_D2D.router.ppp[0].queue queueLength:last 0
scalar SingleCell_D2D.router.ppp[0].queue queueLength:max 0
scalar SingleCell_D2D.router.ppp[0].queue queueLength:timeavg 0
scalar SingleCell_D2D.router.ppp[0].queue queueBitLength:last 0
scalar SingleCell_D2D.router.ppp[0].queue queueBitLength:max 0
scalar SingleCell_D2D.router.ppp[0].queue queueBitLength:timeavg 0
scalar SingleCell_D2D.router.ppp[0].queue outgoingPackets:count 0
scalar SingleCell_D2D.router.ppp[0].queue outgoingPacketLengths:sum 0
scalar SingleCell_D2D.router.ppp[0].queue incomingPackets:count 0
scalar SingleCell_D2D.router.ppp[0].queue incomingPacketLengths:sum 0
scalar SingleCell_D2D.router.ppp[0].queue droppedPacketsQueueOverflow:count 0
scalar SingleCell_D2D.router.ppp[0].queue droppedPacketLengthsQueueOverflow:sum 0
scalar SingleCell_D2D.router.ppp[0].ppp transmissionState:timeavg 0
scalar SingleCell_D2D.router.ppp[0].ppp rxPkOk:count 0
scalar SingleCell_D2D.router.ppp[0].ppp rxPkOk:sum(packetBytes) 0
scalar SingleCell_D2D.router.ppp[0].ppp txPk:count 0
scalar SingleCell_D2D.router.ppp[0].ppp txPk:sum(packetBytes) 0
scalar SingleCell_D2D.router.ppp[0].ppp rcvdPkFromHl:count 0
scalar SingleCell_D2D.router.ppp[0].ppp rcvdPkFromHl:sum(packetBytes) 0
scalar SingleCell_D2D.router.ppp[0].ppp passedUpPk:count 0
scalar SingleCell_D2D.router.ppp[0].ppp passedUpPk:sum(packetBytes) 0
scalar SingleCell_D2D.router.ppp[0].ppp packetDropIncorrectlyReceived:count 0
scalar SingleCell_D2D.router.ppp[0].ppp packetDropIncorrectlyReceived:sum(packetBytes) 0
scalar SingleCell_D2D.router.ppp[0].ppp packetDropInterfaceDown:count 0
scalar SingleCell_D2D.router.ppp[0].ppp packetDropInterfaceDown:sum(packetBytes) 0
scalar SingleCell_D2D.router.ppp[0] packetDropInterfaceDown:count 0
scalar SingleCell_D2D.router.ppp[0] packetDropInterfaceDown:sum(packetBytes) 0
scalar SingleCell_D2D.router.ppp[0] packetDropNoCarrier:count 0
scalar SingleCell_D2D.router.ppp[0] packetDropNoCarrier:sum(packetBytes) 0
scalar SingleCell_D2D.router.ppp[1].queue queueLength:last 0
scalar SingleCell_D2D.router.ppp[1].queue queueLength:max 0
scalar SingleCell_D2D.router.ppp[1].queue queueLength:timeavg 0
scalar SingleCell_D2D.router.ppp[1].queue queueBitLength:last 0
scalar SingleCell_D2D.router.ppp[1].queue queueBitLength:max 0
scalar SingleCell_D2D.router.ppp[1].queue queueBitLength:timeavg 0
scalar SingleCell_D2D.router.ppp[1].queue outgoingPackets:count 0
scalar SingleCell_D2D.router.ppp[1].queue outgoingPacketLengths:sum 0
scalar SingleCell_D2D.router.ppp[1].queue incomingPackets:count 0
scalar SingleCell_D2D.router.ppp[1].queue incomingPacketLengths:sum 0
scalar SingleCell_D2D.router.ppp[1].queue droppedPacketsQueueOverflow:count 0
scalar SingleCell_D2D.router.ppp[1].queue droppedPacketLengthsQueueOverflow:sum 0
scalar SingleCell_D2D.router.ppp[1].ppp transmissionState:timeavg 0
scalar SingleCell_D2D.router.ppp[1].ppp rxPkOk:count 0
scalar SingleCell_D2D.router.ppp[1].ppp rxPkOk:sum(packetBytes) 0
scalar SingleCell_D2D.router.ppp[1].ppp txPk:count 0
scalar SingleCell_D2D.router.ppp[1].ppp txPk:sum(packetBytes) 0
scalar SingleCell_D2D.router.ppp[1].ppp rcvdPkFromHl:count 0
scalar SingleCell_D2D.router.ppp[1].ppp rcvdPkFromHl:sum(packetBytes) 0
scalar SingleCell_D2D.router.ppp[1].ppp passedUpPk:count 0
scalar SingleCell_D2D.router.ppp[1].ppp passedUpPk:sum(packetBytes) 0
scalar SingleCell_D2D.router.ppp[1].ppp packetDropIncorrectlyReceived:count 0
scalar SingleCell_D2D.router.ppp[1].ppp packetDropIncorrectlyReceived:sum(packetBytes) 0
scalar SingleCell_D2D.router.ppp[1].ppp packetDropInterfaceDown:count 0
scalar SingleCell_D2D.router.ppp[1].ppp packetDropInterfaceDown:sum(packetBytes) 0
scalar SingleCell_D2D.router.ppp[1] packetDropInterfaceDown:count 0
scalar SingleCell_D2D.router.ppp[1] packetDropInterfaceDown:sum(packetBytes) 0
scalar SingleCell_D2D.router.ppp[1] packetDropNoCarrier:count 0
scalar SingleCell_D2D.router.ppp[1] packetDropNoCarrier:sum(packetBytes) 0
scalar SingleCell_D2D.router.ipv4.ip packetDropAddressResolutionFailed:count 0
scalar SingleCell_D2D.router.ipv4.ip packetDropAddressResolutionFailed:sum(packetBytes) 0
scalar SingleCell_D2D.router.ipv4.ip packetDropHopLimitReached:count 0
scalar SingleCell_D2D.router.ipv4.ip packetDropHopLimitReached:sum(packetBytes) 0
scalar SingleCell_D2D.router.ipv4.ip packetDropForwardingDisabled:count 0
scalar SingleCell_D2D.router.ipv4.ip packetDropForwardingDisabled:sum(packetBytes) 0
scalar SingleCell_D2D.router.ipv4.ip packetDropNoInterfaceFound:count 0
scalar SingleCell_D2D.router.ipv4.ip packetDropNoInterfaceFound:sum(packetBytes) 0
scalar SingleCell_D2D.router.ipv4.ip packetDropNoRouteFound:count 0
scalar SingleCell_D2D.router.ipv4.ip packetDropNoRouteFound:sum(packetBytes) 0
scalar SingleCell_D2D.router.ipv4.ip packetDropUndefined:count 0
scalar SingleCell_D2D.router.ipv4.ip packetDropUndefined:sum(packetBytes) 0
scalar SingleCell_D2D.router.ipv4.arp arpResolutionFailed:count 0
scalar SingleCell_D2D.router.ipv4.arp arpResolutionCompleted:count 0
scalar SingleCell_D2D.router.ipv4.arp arpResolutionInitiated:count 0
scalar SingleCell_D2D.router.ipv4.arp arpReplySent:count 0
scalar SingleCell_D2D.router.ipv4.arp arpReplySent:sum(packetBytes) 0
scalar SingleCell_D2D.router.ipv4.arp arpRequestSent:count 0
scalar SingleCell_D2D.router.ipv4.arp arpRequestSent:sum(packetBytes) 0
scalar SingleCell_D2D.pgw.lo[0].lo rcvdPkFromHl:count 0
scalar SingleCell_D2D.pgw.lo[0].lo rcvdPkFromHl:sum(packetBytes) 0
scalar SingleCell_D2D.pgw.lo[0].lo passedUpPk:count 0
scalar SingleCell_D2D.pgw.lo[0].lo passedUpPk:sum(packetBytes) 0
scalar SingleCell_D2D.pgw.lo[0] packetDropInterfaceDown:count 0
scalar SingleCell_D2D.pgw.lo[0] packetDropInterfaceDown:sum(packetBytes) 0
scalar SingleCell_D2D.pgw.lo[0] packetDropNoCarrier:count 0
scalar SingleCell_D2D.pgw.lo[0] packetDropNoCarrier:sum(packetBytes) 0
scalar SingleCell_D2D.pgw.ppp[0].queue queueLength:last 0
scalar SingleCell_D2D.pgw.ppp[0].queue queueLength:max 0
scalar SingleCell_D2D.pgw.ppp[0].queue queueLength:timeavg 0
scalar SingleCell_D2D.pgw.ppp[0].queue queueBitLength:last 0
scalar SingleCell_D2D.pgw.ppp[0].queue queueBitLength:max 0
scalar SingleCell_D2D.pgw.ppp[0].queue queueBitLength:timeavg 0
scalar SingleCell_D2D.pgw.ppp[0].queue outgoingPackets:count 0
scalar SingleCell_D2D.pgw.ppp[0].queue outgoingPacketLengths:sum 0
scalar SingleCell_D2D.pgw.ppp[0].queue incomingPackets:count 0
scalar SingleCell_D2D.pgw.ppp[0].queue incomingPacketLengths:sum 0
scalar SingleCell_D2D.pgw.ppp[0].queue droppedPacketsQueueOverflow:count 0
scalar SingleCell_D2D.pgw.ppp[0].queue droppedPacketLengthsQueueOverflow:sum 0
scalar SingleCell_D2D.pgw.ppp[0].ppp transmissionState:timeavg 0
scalar SingleCell_D2D.pgw.ppp[0].ppp rxPkOk:count 0
scalar SingleCell_D2D.pgw.ppp[0].ppp rxPkOk:sum(packetBytes) 0
scalar SingleCell_D2D.pgw.ppp[0].ppp txPk:count 0
scalar SingleCell_D2D.pgw.ppp[0].ppp txPk:sum(packetBytes) 0
scalar SingleCell_D2D.pgw.ppp[0].ppp rcvdPkFromHl:count 0
scalar SingleCell_D2D.pgw.ppp[0].ppp rcvdPkFromHl:sum(packetBytes) 0
scalar SingleCell_D2D.pgw.ppp[0].ppp passedUpPk:count 0
scalar SingleCell_D2D.pgw.ppp[0].ppp passedUpPk:sum(packetBytes) 0
scalar SingleCell_D2D.pgw.ppp[0].ppp packetDropIncorrectlyReceived:count 0
scalar SingleCell_D2D.pgw.ppp[0].ppp packetDropIncorrectlyReceived:sum(packetBytes) 0
scalar SingleCell_D2D.pgw.ppp[0].ppp packetDropInterfaceDown:count 0
scalar SingleCell_D2D.pgw.ppp[0].ppp packetDropInterfaceDown:sum(packetBytes) 0
scalar SingleCell_D2D.pgw.ppp[0] packetDropInterfaceDown:count 0
scalar SingleCell_D2D.pgw.ppp[0] packetDropInterfaceDown:sum(packetBytes) 0
scalar SingleCell_D2D.pgw.ppp[0] packetDropNoCarrier:count 0
scalar SingleCell_D2D.pgw.ppp[0] packetDropNoCarrier:sum(packetBytes) 0
scalar SingleCell_D2D.pgw.ipv4.ip packetDropAddressResolutionFailed:count 0
scalar SingleCell_D2D.pgw.ipv4.ip packetDropAddressResolutionFailed:sum(packetBytes) 0
scalar SingleCell_D2D.pgw.ipv4.ip packetDropHopLimitReached:count 0
scalar SingleCell_D2D.pgw.ipv4.ip packetDropHopLimitReached:sum(packetBytes) 0
scalar SingleCell_D2D.pgw.ipv4.ip packetDropForwardingDisabled:count 0
scalar SingleCell_D2D.pgw.ipv4.ip packetDropForwardingDisabled:sum(packetBytes) 0
scalar SingleCell_D2D.pgw.ipv4.ip packetDropNoInterfaceFound:count 0
scalar SingleCell_D2D.pgw.ipv4.ip packetDropNoInterfaceFound:sum(packetBytes) 0
scalar SingleCell_D2D.pgw.ipv4.ip packetDropNoRouteFound:count 0
scalar SingleCell_D2D.pgw.ipv4.ip packetDropNoRouteFound:sum(packetBytes) 0
scalar SingleCell_D2D.pgw.ipv4.ip packetDropUndefined:count 0
scalar SingleCell_D2D.pgw.ipv4.ip packetDropUndefined:sum(packetBytes) 0
scalar SingleCell_D2D.pgw.ipv4.arp arpResolutionFailed:count 0
scalar SingleCell_D2D.pgw.ipv4.arp arpResolutionCompleted:count 0
scalar SingleCell_D2D.pgw.ipv4.arp arpResolutionInitiated:count 0
scalar SingleCell_D2D.pgw.ipv4.arp arpReplySent:count 0
scalar SingleCell_D2D.pgw.ipv4.arp arpReplySent:sum(packetBytes) 0
scalar SingleCell_D2D.pgw.ipv4.arp arpRequestSent:count 0
scalar SingleCell_D2D.pgw.ipv4.arp arpRequestSent:sum(packetBytes) 0
scalar SingleCell_D2D.pgw.pppIf.queue queueLength:last 0
scalar SingleCell_D2D.pgw.pppIf.queue queueLength:max 0
scalar SingleCell_D2D.pgw.pppIf.queue queueLength:timeavg 0
scalar SingleCell_D2D.pgw.pppIf.queue queueBitLength:last 0
scalar SingleCell_D2D.pgw.pppIf.queue queueBitLength:max 0
scalar SingleCell_D2D.pgw.pppIf.queue queueBitLength:timeavg 0
scalar SingleCell_D2D.pgw.pppIf.queue outgoingPackets:count 0
scalar SingleCell_D2D.pgw.pppIf.queue outgoingPacketLengths:sum 0
scalar SingleCell_D2D.pgw.pppIf.queue incomingPackets:count 0
scalar SingleCell_D2D.pgw.pppIf.queue incomingPacketLengths:sum 0
scalar SingleCell_D2D.pgw.pppIf.queue droppedPacketsQueueOverflow:count 0
scalar SingleCell_D2D.pgw.pppIf.queue droppedPacketLengthsQueueOverflow:sum 0
scalar SingleCell_D2D.pgw.pppIf.ppp transmissionState:timeavg 0
scalar SingleCell_D2D.pgw.pppIf.ppp rxPkOk:count 0
scalar SingleCell_D2D.pgw.pppIf.ppp rxPkOk:sum(packetBytes) 0
scalar SingleCell_D2D.pgw.pppIf.ppp txPk:count 0
scalar SingleCell_D2D.pgw.pppIf.ppp txPk:sum(packetBytes) 0
scalar SingleCell_D2D.pgw.pppIf.ppp rcvdPkFromHl:count 0
scalar SingleCell_D2D.pgw.pppIf.ppp rcvdPkFromHl:sum(packetBytes) 0
scalar SingleCell_D2D.pgw.pppIf.ppp passedUpPk:count 0
scalar SingleCell_D2D.pgw.pppIf.ppp passedUpPk:sum(packetBytes) 0
scalar SingleCell_D2D.pgw.pppIf.ppp packetDropIncorrectlyReceived:count 0
scalar SingleCell_D2D.pgw.pppIf.ppp packetDropIncorrectlyReceived:sum(packetBytes) 0
scalar SingleCell_D2D.pgw.pppIf.ppp packetDropInterfaceDown:count 0
scalar SingleCell_D2D.pgw.pppIf.ppp packetDropInterfaceDown:sum(packetBytes) 0
scalar SingleCell_D2D.pgw.pppIf packetDropInterfaceDown:count 0
scalar SingleCell_D2D.pgw.pppIf packetDropInterfaceDown:sum(packetBytes) 0
scalar SingleCell_D2D.pgw.pppIf packetDropNoCarrier:count 0
scalar SingleCell_D2D.pgw.pppIf packetDropNoCarrier:sum(packetBytes) 0
scalar SingleCell_D2D.pgw.udp packetReceived:count 0
scalar SingleCell_D2D.pgw.udp packetReceived:sum(packetBytes) 0
scalar SingleCell_D2D.pgw.udp packetSent:count 0
scalar SingleCell_D2D.pgw.udp packetSent:sum(packetBytes) 0
scalar SingleCell_D2D.pgw.udp passedUpPk:count 0
scalar SingleCell_D2D.pgw.udp droppedPkWrongPort:count 0
scalar SingleCell_D2D.pgw.udp droppedPkBadChecksum:count 0
scalar SingleCell_D2D.eNB.cellularNic.pdcp sentPacketToLowerLayer:count 14741
scalar SingleCell_D2D.eNB.cellularNic.pdcp sentPacketToLowerLayer:sum(packetBytes) 4561173
scalar SingleCell_D2D.eNB.cellularNic.pdcp sentPacketToUpperLayer:count 14741
scalar SingleCell_D2D.eNB.cellularNic.pdcp sentPacketToUpperLayer:sum(packetBytes) 4546432
scalar SingleCell_D2D.eNB.cellularNic.pdcp receivedPacketFromLowerLayer:count 14741
scalar SingleCell_D2D.eNB.cellularNic.pdcp receivedPacketFromLowerLayer:sum(packetBytes) 4561173
scalar SingleCell_D2D.eNB.cellularNic.pdcp receivedPacketFromUpperLayer:count 14741
scalar SingleCell_D2D.eNB.cellularNic.pdcp receivedPacketFromUpperLayer:sum(packetBytes) 4546432
scalar SingleCell_D2D.eNB.cellularNic.rlc.tm rlcPacketLossUl:mean -nan
scalar SingleCell_D2D.eNB.cellularNic.rlc.tm rlcPacketLossUl:sum 0
scalar SingleCell_D2D.eNB.cellularNic.rlc.tm rlcPacketLossDl:mean -nan
scalar SingleCell_D2D.eNB.cellularNic.rlc.tm rlcPacketLossDl:sum 0
scalar SingleCell_D2D.eNB.cellularNic.rlc.tm sentPacketToLowerLayer:count 0
scalar SingleCell_D2D.eNB.cellularNic.rlc.tm sentPacketToLowerLayer:sum(packetBytes) 0
scalar SingleCell_D2D.eNB.cellularNic.rlc.tm sentPacketToUpperLayer:count 0
scalar SingleCell_D2D.eNB.cellularNic.rlc.tm sentPacketToUpperLayer:sum(packetBytes) 0
scalar SingleCell_D2D.eNB.cellularNic.rlc.tm receivedPacketFromLowerLayer:count 0
scalar SingleCell_D2D.eNB.cellularNic.rlc.tm receivedPacketFromLowerLayer:sum(packetBytes) 0
scalar SingleCell_D2D.eNB.cellularNic.rlc.tm receivedPacketFromUpperLayer:count 0
scalar SingleCell_D2D.eNB.cellularNic.rlc.tm receivedPacketFromUpperLayer:sum(packetBytes) 0
scalar SingleCell_D2D.eNB.cellularNic.rlc.um rlcPacketLossTotal:mean -nan
scalar SingleCell_D2D.eNB.cellularNic.rlc.um rlcCellThroughputUl:mean 1601889.6881634302
scalar SingleCell_D2D.eNB.cellularNic.rlc.um rlcCellThroughputDl:mean 1604027.283950483
scalar SingleCell_D2D.eNB.cellularNic.rlc.um rlcPduThroughputUl:mean -nan
scalar SingleCell_D2D.eNB.cellularNic.rlc.um rlcPduThroughputDl:mean -nan
scalar SingleCell_D2D.eNB.cellularNic.rlc.um rlcPduDelayUl:mean -nan
scalar SingleCell_D2D.eNB.cellularNic.rlc.um rlcPduDelayDl:mean -nan
scalar SingleCell_D2D.eNB.cellularNic.rlc.um rlcThroughputUl:mean -nan
scalar SingleCell_D2D.eNB.cellularNic.rlc.um rlcThroughputDl:mean -nan
scalar SingleCell_D2D.eNB.cellularNic.rlc.um rlcDelayUl:mean -nan
scalar SingleCell_D2D.eNB.cellularNic.rlc.um rlcDelayDl:mean -nan
scalar SingleCell_D2D.eNB.cellularNic.rlc.um rlcPduPacketLossUl:mean -nan
scalar SingleCell_D2D.eNB.cellularNic.rlc.um rlcPduPacketLossDl:mean -nan
scalar SingleCell_D2D.eNB.cellularNic.rlc.um rlcPacketLossUl:mean -nan
scalar SingleCell_D2D.eNB.cellularNic.rlc.um rlcPacketLossUl:sum 0
scalar SingleCell_D2D.eNB.cellularNic.rlc.um rlcPacketLossDl:mean -nan
scalar SingleCell_D2D.eNB.cellularNic.rlc.um rlcPacketLossDl:sum 0
scalar SingleCell_D2D.eNB.cellularNic.rlc.um rlcCellPacketLossUl:mean 0.00067792014100738929
scalar SingleCell_D2D.eNB.cellularNic.rlc.um rlcCellPacketLossDl:mean 0
scalar SingleCell_D2D.eNB.cellularNic.rlc.um sentPacketToLowerLayer:count 4913
scalar SingleCell_D2D.eNB.cellularNic.rlc.um sentPacketToLowerLayer:sum(packetBytes) 4568691
scalar SingleCell_D2D.eNB.cellularNic.rlc.um sentPacketToUpperLayer:count 14741
scalar SingleCell_D2D.eNB.cellularNic.rlc.um sentPacketToUpperLayer:sum(packetBytes) 4561173
scalar SingleCell_D2D.eNB.cellularNic.rlc.um receivedPacketFromLowerLayer:count 6751
scalar SingleCell_D2D.eNB.cellularNic.rlc.um receivedPacketFromLowerLayer:sum(packetBytes) 4580762
scalar SingleCell_D2D.eNB.cellularNic.rlc.um receivedPacketFromUpperLayer:count 14741
scalar SingleCell_D2D.eNB.cellularNic.rlc.um receivedPacketFromUpperLayer:sum(packetBytes) 4561173
scalar SingleCell_D2D.eNB.cellularNic.rlc.am rlcPacketLossTotal:mean -nan
scalar SingleCell_D2D.eNB.cellularNic.rlc.am rlcCellThroughputUl:mean -nan
scalar SingleCell_D2D.eNB.cellularNic.rlc.am rlcCellThroughputDl:mean -nan
scalar SingleCell_D2D.eNB.cellularNic.rlc.am rlcPduThroughputUl:mean -nan
scalar SingleCell_D2D.eNB.cellularNic.rlc.am rlcPduThroughputDl:mean -nan
scalar SingleCell_D2D.eNB.cellularNic.rlc.am rlcPduDelayUl:mean -nan
scalar SingleCell_D2D.eNB.cellularNic.rlc.am rlcPduDelayDl:mean -nan
scalar SingleCell_D2D.eNB.cellularNic.rlc.am rlcThroughputUl:mean -nan
scalar SingleCell_D2D.eNB.cellularNic.rlc.am rlcThroughputDl:mean -nan
scalar SingleCell_D2D.eNB.cellularNic.rlc.am rlcDelayUl:mean -nan
scalar SingleCell_D2D.eNB.cellularNic.rlc.am rlcDelayDl:mean -nan
scalar SingleCell_D2D.eNB.cellularNic.rlc.am rlcPduPacketLossUl:mean -nan
scalar SingleCell_D2D.eNB.cellularNic.rlc.am rlcPduPacketLossDl:mean -nan
scalar SingleCell_D2D.eNB.cellularNic.rlc.am rlcPacketLossUl:mean -nan
scalar SingleCell_D2D.eNB.cellularNic.rlc.am rlcPacketLossDl:mean -nan
scalar SingleCell_D2D.eNB.cellularNic.rlc.am rlcCellPacketLossUl:mean -nan
scalar SingleCell_D2D.eNB.cellularNic.rlc.am rlcCellPacketLossDl:mean -nan
scalar SingleCell_D2D.eNB.cellularNic.mac avgServedBlocksUl:mean 10.564399999999999
scalar SingleCell_D2D.eNB.cellularNic.mac avgServedBlocksDl:mean 10.6386
scalar SingleCell_D2D.eNB.cellularNic.mac harqTxAttemptsUl:mean -nan
scalar SingleCell_D2D.eNB.cellularNic.mac harqTxAttemptsDl:mean -nan
scalar SingleCell_D2D.eNB.cellularNic.mac harqErrorRate_4th_Ul:mean -nan
scalar SingleCell_D2D.eNB.cellularNic.mac harqErrorRate_4th_Dl:mean -nan
scalar SingleCell_D2D.eNB.cellularNic.mac harqErrorRate_3rd_Ul:mean -nan
scalar SingleCell_D2D.eNB.cellularNic.mac harqErrorRate_3rd_Dl:mean -nan
scalar SingleCell_D2D.eNB.cellularNic.mac harqErrorRate_2nd_Ul:mean -nan
scalar SingleCell_D2D.eNB.cellularNic.mac harqErrorRate_2nd_Dl:mean -nan
scalar SingleCell_D2D.eNB.cellularNic.mac harqErrorRate_1st_Ul:mean -nan
scalar SingleCell_D2D.eNB.cellularNic.mac harqErrorRate_1st_Dl:mean -nan
scalar SingleCell_D2D.eNB.cellularNic.mac harqErrorRateUl:mean -nan
scalar SingleCell_D2D.eNB.cellularNic.mac harqErrorRateDl:mean -nan
scalar SingleCell_D2D.eNB.cellularNic.mac macCellPacketLossUl:mean 0
scalar SingleCell_D2D.eNB.cellularNic.mac macCellPacketLossDl:mean 0
scalar SingleCell_D2D.eNB.cellularNic.mac macPacketLossUl:mean -nan
scalar SingleCell_D2D.eNB.cellularNic.mac macPacketLossDl:mean -nan
scalar SingleCell_D2D.eNB.cellularNic.mac macThroughputUl:mean -nan
scalar SingleCell_D2D.eNB.cellularNic.mac macThroughputDl:mean -nan
scalar SingleCell_D2D.eNB.cellularNic.mac macDelayUl:mean -nan
scalar SingleCell_D2D.eNB.cellularNic.mac macDelayDl:mean -nan
scalar SingleCell_D2D.eNB.cellularNic.mac macCellThroughputUl:mean 1603169.6253234097
scalar SingleCell_D2D.eNB.cellularNic.mac macCellThroughputDl:mean 1603635.7502337031
scalar SingleCell_D2D.eNB.cellularNic.mac sentPacketToLowerLayer:count 22149
scalar SingleCell_D2D.eNB.cellularNic.mac sentPacketToLowerLayer:sum(packetBytes) 4595753
scalar SingleCell_D2D.eNB.cellularNic.mac sentPacketToUpperLayer:count 11664
scalar SingleCell_D2D.eNB.cellularNic.mac sentPacketToUpperLayer:sum(packetBytes) 4585675
scalar SingleCell_D2D.eNB.cellularNic.mac receivedPacketFromLowerLayer:count 23715
scalar SingleCell_D2D.eNB.cellularNic.mac receivedPacketFromLowerLayer:sum(packetBytes) 4625366
scalar SingleCell_D2D.eNB.cellularNic.mac receivedPacketFromUpperLayer:count 19654
scalar SingleCell_D2D.eNB.cellularNic.mac receivedPacketFromUpperLayer:sum(packetBytes) 9159346
scalar SingleCell_D2D.eNB.cellularNic.mac macBufferOverFlowD2D:mean -nan
scalar SingleCell_D2D.eNB.cellularNic.mac macBufferOverFlowUl:mean -nan
scalar SingleCell_D2D.eNB.cellularNic.mac macBufferOverFlowDl:mean -nan
scalar SingleCell_D2D.eNB.cellularNic.channelModel[0] measuredSinrUl:mean -nan
scalar SingleCell_D2D.eNB.cellularNic.channelModel[0] measuredSinrDl:mean -nan
scalar SingleCell_D2D.eNB.cellularNic.channelModel[0] rcvdSinrD2D:mean -nan
scalar SingleCell_D2D.eNB.cellularNic.channelModel[0] rcvdSinrUl:mean -nan
scalar SingleCell_D2D.eNB.cellularNic.channelModel[0] rcvdSinrDl:mean -nan
scalar SingleCell_D2D.eNB.cellularNic packetDropInterfaceDown:count 0
scalar SingleCell_D2D.eNB.cellularNic packetDropInterfaceDown:sum(packetBytes) 0
scalar SingleCell_D2D.eNB.cellularNic packetDropNoCarrier:count 0
scalar SingleCell_D2D.eNB.cellularNic packetDropNoCarrier:sum(packetBytes) 0
scalar SingleCell_D2D.eNB.pppIf.queue queueLength:last 0
scalar SingleCell_D2D.eNB.pppIf.queue queueLength:max 0
scalar SingleCell_D2D.eNB.pppIf.queue queueLength:timeavg 0
scalar SingleCell_D2D.eNB.pppIf.queue queueBitLength:last 0
scalar SingleCell_D2D.eNB.pppIf.queue queueBitLength:max 0
scalar SingleCell_D2D.eNB.pppIf.queue queueBitLength:timeavg 0
scalar SingleCell_D2D.eNB.pppIf.queue outgoingPackets:count 0
scalar SingleCell_D2D.eNB.pppIf.queue outgoingPacketLengths:sum 0
scalar SingleCell_D2D.eNB.pppIf.queue incomingPackets:count 0
scalar SingleCell_D2D.eNB.pppIf.queue incomingPacketLengths:sum 0
scalar SingleCell_D2D.eNB.pppIf.queue droppedPacketsQueueOverflow:count 0
scalar SingleCell_D2D.eNB.pppIf.queue droppedPacketLengthsQueueOverflow:sum 0
scalar SingleCell_D2D.eNB.pppIf.ppp transmissionState:timeavg 0
scalar SingleCell_D2D.eNB.pppIf.ppp rxPkOk:count 0
scalar SingleCell_D2D.eNB.pppIf.ppp rxPkOk:sum(packetBytes) 0
scalar SingleCell_D2D.eNB.pppIf.ppp txPk:count 0
scalar SingleCell_D2D.eNB.pppIf.ppp txPk:sum(packetBytes) 0
scalar SingleCell_D2D.eNB.pppIf.ppp rcvdPkFromHl:count 0
scalar SingleCell_D2D.eNB.pppIf.ppp rcvdPkFromHl:sum(packetBytes) 0
scalar SingleCell_D2D.eNB.pppIf.ppp passedUpPk:count 0
scalar SingleCell_D2D.eNB.pppIf.ppp passedUpPk:sum(packetBytes) 0
scalar SingleCell_D2D.eNB.pppIf.ppp packetDropIncorrectlyReceived:count 0
scalar SingleCell_D2D.eNB.pppIf.ppp packetDropIncorrectlyReceived:sum(packetBytes) 0
scalar SingleCell_D2D.eNB.pppIf.ppp packetDropInterfaceDown:count 0
scalar SingleCell_D2D.eNB.pppIf.ppp packetDropInterfaceDown:sum(packetBytes) 0
scalar SingleCell_D2D.eNB.pppIf packetDropInterfaceDown:count 0
scalar SingleCell_D2D.eNB.pppIf packetDropInterfaceDown:sum(packetBytes) 0
scalar SingleCell_D2D.eNB.pppIf packetDropNoCarrier:count 0
scalar SingleCell_D2D.eNB.pppIf packetDropNoCarrier:sum(packetBytes) 0
scalar SingleCell_D2D.eNB.pppMEHostIf.queue queueLength:last 0
scalar SingleCell_D2D.eNB.pppMEHostIf.queue queueLength:max 0
scalar SingleCell_D2D.eNB.pppMEHostIf.queue queueLength:timeavg 0
scalar SingleCell_D2D.eNB.pppMEHostIf.queue queueBitLength:last 0
scalar SingleCell_D2D.eNB.pppMEHostIf.queue queueBitLength:max 0
scalar SingleCell_D2D.eNB.pppMEHostIf.queue queueBitLength:timeavg 0
scalar SingleCell_D2D.eNB.pppMEHostIf.queue outgoingPackets:count 0
scalar SingleCell_D2D.eNB.pppMEHostIf.queue outgoingPacketLengths:sum 0
scalar SingleCell_D2D.eNB.pppMEHostIf.queue incomingPackets:count 0
scalar SingleCell_D2D.eNB.pppMEHostIf.queue incomingPacketLengths:sum 0
scalar SingleCell_D2D.eNB.pppMEHostIf.queue droppedPacketsQueueOverflow:count 0
scalar SingleCell_D2D.eNB.pppMEHostIf.queue droppedPacketLengthsQueueOverflow:sum 0
scalar SingleCell_D2D.eNB.pppMEHostIf.ppp transmissionState:timeavg 0
scalar SingleCell_D2D.eNB.pppMEHostIf.ppp rxPkOk:count 0
scalar SingleCell_D2D.eNB.pppMEHostIf.ppp rxPkOk:sum(packetBytes) 0
scalar SingleCell_D2D.eNB.pppMEHostIf.ppp txPk:count 0
scalar SingleCell_D2D.eNB.pppMEHostIf.ppp txPk:sum(packetBytes) 0
scalar SingleCell_D2D.eNB.pppMEHostIf.ppp rcvdPkFromHl:count 0
scalar SingleCell_D2D.eNB.pppMEHostIf.ppp rcvdPkFromHl:sum(packetBytes) 0
scalar SingleCell_D2D.eNB.pppMEHostIf.ppp passedUpPk:count 0
scalar SingleCell_D2D.eNB.pppMEHostIf.ppp passedUpPk:sum(packetBytes) 0
scalar SingleCell_D2D.eNB.pppMEHostIf.ppp packetDropIncorrectlyReceived:count 0
scalar SingleCell_D2D.eNB.pppMEHostIf.ppp packetDropIncorrectlyReceived:sum(packetBytes) 0
scalar SingleCell_D2D.eNB.pppMEHostIf.ppp packetDropInterfaceDown:count 0
scalar SingleCell_D2D.eNB.pppMEHostIf.ppp packetDropInterfaceDown:sum(packetBytes) 0
scalar SingleCell_D2D.eNB.pppMEHostIf packetDropInterfaceDown:count 0
scalar SingleCell_D2D.eNB.pppMEHostIf packetDropInterfaceDown:sum(packetBytes) 0
scalar SingleCell_D2D.eNB.pppMEHostIf packetDropNoCarrier:count 0
scalar SingleCell_D2D.eNB.pppMEHostIf packetDropNoCarrier:sum(packetBytes) 0
scalar SingleCell_D2D.eNB.ipv4.ip packetDropAddressResolutionFailed:count 0
scalar SingleCell_D2D.eNB.ipv4.ip packetDropAddressResolutionFailed:sum(packetBytes) 0
scalar SingleCell_D2D.eNB.ipv4.ip packetDropHopLimitReached:count 0
scalar SingleCell_D2D.eNB.ipv4.ip packetDropHopLimitReached:sum(packetBytes) 0
scalar SingleCell_D2D.eNB.ipv4.ip packetDropForwardingDisabled:count 0
scalar SingleCell_D2D.eNB.ipv4.ip packetDropForwardingDisabled:sum(packetBytes) 0
scalar SingleCell_D2D.eNB.ipv4.ip packetDropNoInterfaceFound:count 0
scalar SingleCell_D2D.eNB.ipv4.ip packetDropNoInterfaceFound:sum(packetBytes) 0
scalar SingleCell_D2D.eNB.ipv4.ip packetDropNoRouteFound:count 0
scalar SingleCell_D2D.eNB.ipv4.ip packetDropNoRouteFound:sum(packetBytes) 0
scalar SingleCell_D2D.eNB.ipv4.ip packetDropUndefined:count 0
scalar SingleCell_D2D.eNB.ipv4.ip packetDropUndefined:sum(packetBytes) 0
scalar SingleCell_D2D.eNB.ipv4.arp arpResolutionFailed:count 0
scalar SingleCell_D2D.eNB.ipv4.arp arpResolutionCompleted:count 0
scalar SingleCell_D2D.eNB.ipv4.arp arpResolutionInitiated:count 0
scalar SingleCell_D2D.eNB.ipv4.arp arpReplySent:count 0
scalar SingleCell_D2D.eNB.ipv4.arp arpReplySent:sum(packetBytes) 0
scalar SingleCell_D2D.eNB.ipv4.arp arpRequestSent:count 0
scalar SingleCell_D2D.eNB.ipv4.arp arpRequestSent:sum(packetBytes) 0
scalar SingleCell_D2D.eNB.udp packetReceived:count 0
scalar SingleCell_D2D.eNB.udp packetReceived:sum(packetBytes) 0
scalar SingleCell_D2D.eNB.udp packetSent:count 0
scalar SingleCell_D2D.eNB.udp packetSent:sum(packetBytes) 0
scalar SingleCell_D2D.eNB.udp passedUpPk:count 0
scalar SingleCell_D2D.eNB.udp droppedPkWrongPort:count 0
scalar SingleCell_D2D.eNB.udp droppedPkBadChecksum:count 0
scalar SingleCell_D2D.ueD2DTx[0].lo[0].lo rcvdPkFromHl:count 0
scalar SingleCell_D2D.ueD2DTx[0].lo[0].lo rcvdPkFromHl:sum(packetBytes) 0
scalar SingleCell_D2D.ueD2DTx[0].lo[0].lo passedUpPk:count 0
scalar SingleCell_D2D.ueD2DTx[0].lo[0].lo passedUpPk:sum(packetBytes) 0
scalar SingleCell_D2D.ueD2DTx[0].lo[0] packetDropInterfaceDown:count 0
scalar SingleCell_D2D.ueD2DTx[0].lo[0] packetDropInterfaceDown:sum(packetBytes) 0
scalar SingleCell_D2D.ueD2DTx[0].lo[0] packetDropNoCarrier:count 0
scalar SingleCell_D2D.ueD2DTx[0].lo[0] packetDropNoCarrier:sum(packetBytes) 0
scalar SingleCell_D2D.ueD2DTx[0].cellularNic.pdcp sentPacketToLowerLayer:count 1645
scalar SingleCell_D2D.ueD2DTx[0].cellularNic.pdcp sentPacketToLowerLayer:sum(packetBytes) 948097
scalar SingleCell_D2D.ueD2DTx[0].cellularNic.pdcp sentPacketToUpperLayer:count 1630
scalar SingleCell_D2D.ueD2DTx[0].cellularNic.pdcp sentPacketToUpperLayer:sum(packetBytes) 65204
scalar SingleCell_D2D.ueD2DTx[0].cellularNic.pdcp receivedPacketFromLowerLayer:count 1630
scalar SingleCell_D2D.ueD2DTx[0].cellularNic.pdcp receivedPacketFromLowerLayer:sum(packetBytes) 66834
scalar SingleCell_D2D.ueD2DTx[0].cellularNic.pdcp receivedPacketFromUpperLayer:count 1645
scalar SingleCell_D2D.ueD2DTx[0].cellularNic.pdcp receivedPacketFromUpperLayer:sum(packetBytes) 946452
scalar SingleCell_D2D.ueD2DTx[0].cellularNic.rlc.tm rlcPacketLossUl:mean -nan
scalar SingleCell_D2D.ueD2DTx[0].cellularNic.rlc.tm rlcPacketLossUl:sum 0
scalar SingleCell_D2D.ueD2DTx[0].cellularNic.rlc.tm rlcPacketLossDl:mean -nan
scalar SingleCell_D2D.ueD2DTx[0].cellularNic.rlc.tm rlcPacketLossDl:sum 0
scalar SingleCell_D2D.ueD2DTx[0].cellularNic.rlc.tm sentPacketToLowerLayer:count 0
scalar SingleCell_D2D.ueD2DTx[0].cellularNic.rlc.tm sentPacketToLowerLayer:sum(packetBytes) 0
scalar SingleCell_D2D.ueD2DTx[0].cellularNic.rlc.tm sentPacketToUpperLayer:count 0
scalar SingleCell_D2D.ueD2DTx[0].cellularNic.rlc.tm sentPacketToUpperLayer:sum(packetBytes) 0
scalar SingleCell_D2D.ueD2DTx[0].cellularNic.rlc.tm receivedPacketFromLowerLayer:count 0
scalar SingleCell_D2D.ueD2DTx[0].cellularNic.rlc.tm receivedPacketFromLowerLayer:sum(packetBytes) 0
scalar SingleCell_D2D.ueD2DTx[0].cellularNic.rlc.tm receivedPacketFromUpperLayer:count 0
scalar SingleCell_D2D.ueD2DTx[0].cellularNic.rlc.tm receivedPacketFromUpperLayer:sum(packetBytes) 0
scalar SingleCell_D2D.ueD2DTx[0].cellularNic.rlc.um rlcPacketLossTotal:mean 0
scalar SingleCell_D2D.ueD2DTx[0].cellularNic.rlc.um rlcCellThroughputUl:mean -nan
scalar SingleCell_D2D.ueD2DTx[0].cellularNic.rlc.um rlcCellThroughputDl:mean -nan
scalar SingleCell_D2D.ueD2DTx[0].cellularNic.rlc.um rlcPduThroughputUl:mean 0
scalar SingleCell_D2D.ueD2DTx[0].cellularNic.rlc.um rlcPduThroughputDl:mean 0
scalar SingleCell_D2D.ueD2DTx[0].cellularNic.rlc.um rlcPduDelayUl:mean 0.0040000000000000027
scalar SingleCell_D2D.ueD2DTx[0].cellularNic.rlc.um rlcPduDelayDl:mean 0.0040000000000000027
scalar SingleCell_D2D.ueD2DTx[0].cellularNic.rlc.um rlcThroughputUl:mean 161459.52960037877
scalar SingleCell_D2D.ueD2DTx[0].cellularNic.rlc.um rlcThroughputDl:mean 11374.521323699566
scalar SingleCell_D2D.ueD2DTx[0].cellularNic.rlc.um rlcDelayUl:mean 0.017703409284657887
scalar SingleCell_D2D.ueD2DTx[0].cellularNic.rlc.um rlcDelayDl:mean 0.01679079754601185
scalar SingleCell_D2D.ueD2DTx[0].cellularNic.rlc.um rlcPduPacketLossUl:mean 0
scalar SingleCell_D2D.ueD2DTx[0].cellularNic.rlc.um rlcPduPacketLossDl:mean 0
scalar SingleCell_D2D.ueD2DTx[0].cellularNic.rlc.um rlcPacketLossUl:mean 0
scalar SingleCell_D2D.ueD2DTx[0].cellularNic.rlc.um rlcPacketLossUl:sum 0
scalar SingleCell_D2D.ueD2DTx[0].cellularNic.rlc.um rlcPacketLossDl:mean 0
scalar SingleCell_D2D.ueD2DTx[0].cellularNic.rlc.um rlcPacketLossDl:sum 0
scalar SingleCell_D2D.ueD2DTx[0].cellularNic.rlc.um rlcCellPacketLossUl:mean -nan
scalar SingleCell_D2D.ueD2DTx[0].cellularNic.rlc.um rlcCellPacketLossDl:mean -nan
scalar SingleCell_D2D.ueD2DTx[0].cellularNic.rlc.um sentPacketToLowerLayer:count 929
scalar SingleCell_D2D.ueD2DTx[0].cellularNic.rlc.um sentPacketToLowerLayer:sum(packetBytes) 948964
scalar SingleCell_D2D.ueD2DTx[0].cellularNic.rlc.um sentPacketToUpperLayer:count 1630
scalar SingleCell_D2D.ueD2DTx[0].cellularNic.rlc.um sentPacketToUpperLayer:sum(packetBytes) 66834
scalar SingleCell_D2D.ueD2DTx[0].cellularNic.rlc.um receivedPacketFromLowerLayer:count 523
scalar SingleCell_D2D.ueD2DTx[0].cellularNic.rlc.um receivedPacketFromLowerLayer:sum(packetBytes) 67880
scalar SingleCell_D2D.ueD2DTx[0].cellularNic.rlc.um receivedPacketFromUpperLayer:count 1645
scalar SingleCell_D2D.ueD2DTx[0].cellularNic.rlc.um receivedPacketFromUpperLayer:sum(packetBytes) 948097
scalar SingleCell_D2D.ueD2DTx[0].cellularNic.rlc.am rlcPacketLossTotal:mean -nan
scalar SingleCell_D2D.ueD2DTx[0].cellularNic.rlc.am rlcCellThroughputUl:mean -nan
scalar SingleCell_D2D.ueD2DTx[0].cellularNic.rlc.am rlcCellThroughputDl:mean -nan
scalar SingleCell_D2D.ueD2DTx[0].cellularNic.rlc.am rlcPduThroughputUl:mean -nan
scalar SingleCell_D2D.ueD2DTx[0].cellularNic.rlc.am rlcPduThroughputDl:mean -nan
scalar SingleCell_D2D.ueD2DTx[0].cellularNic.rlc.am rlcPduDelayUl:mean -nan
scalar SingleCell_D2D.ueD2DTx[0].cellularNic.rlc.am rlcPduDelayDl:mean -nan
scalar SingleCell_D2D.ueD2DTx[0].cellularNic.rlc.am rlcThroughputUl:mean -nan
scalar SingleCell_D2D.ueD2DTx[0].cellularNic.rlc.am rlcThroughputDl:mean -nan
scalar SingleCell_D2D.ueD2DTx[0].cellularNic.rlc.am rlcDelayUl:mean -nan
scalar SingleCell_D2D.ueD2DTx[0].cellularNic.rlc.am rlcDelayDl:mean -nan
scalar SingleCell_D2D.ueD2DTx[0].cellularNic.rlc.am rlcPduPacketLossUl:mean -nan
scalar SingleCell_D2D.ueD2DTx[0].cellularNic.rlc.am rlcPduPacketLossDl:mean -nan
scalar SingleCell_D2D.ueD2DTx[0].cellularNic.rlc.am rlcPacketLossUl:mean -nan
scalar SingleCell_D2D.ueD2DTx[0].cellularNic.rlc.am rlcPacketLossDl:mean -nan
scalar SingleCell_D2D.ueD2DTx[0].cellularNic.rlc.am rlcCellPacketLossUl:mean -nan
scalar SingleCell_D2D.ueD2DTx[0].cellularNic.rlc.am rlcCellPacketLossDl:mean -nan
scalar SingleCell_D2D.ueD2DTx[0].cellularNic.mac harqTxAttemptsUl:mean 1
scalar SingleCell_D2D.ueD2DTx[0].cellularNic.mac harqTxAttemptsDl:mean 1
scalar SingleCell_D2D.ueD2DTx[0].cellularNic.mac harqErrorRate_4th_Ul:mean -nan
scalar SingleCell_D2D.ueD2DTx[0].cellularNic.mac harqErrorRate_4th_Dl:mean -nan
scalar SingleCell_D2D.ueD2DTx[0].cellularNic.mac harqErrorRate_3rd_Ul:mean -nan
scalar SingleCell_D2D.ueD2DTx[0].cellularNic.mac harqErrorRate_3rd_Dl:mean -nan
scalar SingleCell_D2D.ueD2DTx[0].cellularNic.mac harqErrorRate_2nd_Ul:mean -nan
scalar SingleCell_D2D.ueD2DTx[0].cellularNic.mac harqErrorRate_2nd_Dl:mean -nan
scalar SingleCell_D2D.ueD2DTx[0].cellularNic.mac harqErrorRate_1st_Ul:mean 0
scalar SingleCell_D2D.ueD2DTx[0].cellularNic.mac harqErrorRate_1st_Dl:mean 0
scalar SingleCell_D2D.ueD2DTx[0].cellularNic.mac harqErrorRateUl:mean 0
scalar SingleCell_D2D.ueD2DTx[0].cellularNic.mac harqErrorRateDl:mean 0
scalar SingleCell_D2D.ueD2DTx[0].cellularNic.mac macCellPacketLossUl:mean -nan
scalar SingleCell_D2D.ueD2DTx[0].cellularNic.mac macCellPacketLossDl:mean -nan
scalar SingleCell_D2D.ueD2DTx[0].cellularNic.mac macPacketLossUl:mean 0
scalar SingleCell_D2D.ueD2DTx[0].cellularNic.mac macPacketLossDl:mean 0
scalar SingleCell_D2D.ueD2DTx[0].cellularNic.mac macThroughputUl:mean 162080.5572399153
scalar SingleCell_D2D.ueD2DTx[0].cellularNic.mac macThroughputDl:mean 11573.650988571148
scalar SingleCell_D2D.ueD2DTx[0].cellularNic.mac macDelayUl:mean 0.0040000000000000027
scalar SingleCell_D2D.ueD2DTx[0].cellularNic.mac macDelayDl:mean 0.0040000000000000027
scalar SingleCell_D2D.ueD2DTx[0].cellularNic.mac macCellThroughputUl:mean -nan
scalar SingleCell_D2D.ueD2DTx[0].cellularNic.mac macCellThroughputDl:mean -nan
scalar SingleCell_D2D.ueD2DTx[0].cellularNic.mac sentPacketToLowerLayer:count 1865
scalar SingleCell_D2D.ueD2DTx[0].cellularNic.mac sentPacketToLowerLayer:sum(packetBytes) 951758
scalar SingleCell_D2D.ueD2DTx[0].cellularNic.mac sentPacketToUpperLayer:count 1452
scalar SingleCell_D2D.ueD2DTx[0].cellularNic.mac sentPacketToUpperLayer:sum(packetBytes) 68809
scalar SingleCell_D2D.ueD2DTx[0].cellularNic.mac receivedPacketFromLowerLayer:count 2794
scalar SingleCell_D2D.ueD2DTx[0].cellularNic.mac receivedPacketFromLowerLayer:sum(packetBytes) 71282
scalar SingleCell_D2D.ueD2DTx[0].cellularNic.mac receivedPacketFromUpperLayer:count 2574
scalar SingleCell_D2D.ueD2DTx[0].cellularNic.mac receivedPacketFromUpperLayer:sum(packetBytes) 1900351
scalar SingleCell_D2D.ueD2DTx[0].cellularNic.mac macBufferOverFlowD2D:mean -nan
scalar SingleCell_D2D.ueD2DTx[0].cellularNic.mac macBufferOverFlowUl:mean -nan
scalar SingleCell_D2D.ueD2DTx[0].cellularNic.mac macBufferOverFlowDl:mean -nan
scalar SingleCell_D2D.ueD2DTx[0].cellularNic.phy distance:mean -nan
scalar SingleCell_D2D.ueD2DTx[0].cellularNic.phy averageCqiUl:mean 15
scalar SingleCell_D2D.ueD2DTx[0].cellularNic.phy averageCqiUl:count 929
scalar SingleCell_D2D.ueD2DTx[0].cellularNic.phy averageCqiDl:mean 15
scalar SingleCell_D2D.ueD2DTx[0].cellularNic.phy averageCqiDl:count 524
scalar SingleCell_D2D.ueD2DTx[0].cellularNic.channelModel[0] measuredSinrUl:mean 51.307764019579267
scalar SingleCell_D2D.ueD2DTx[0].cellularNic.channelModel[0] measuredSinrDl:mean 76.037936400418758
scalar SingleCell_D2D.ueD2DTx[0].cellularNic.channelModel[0] rcvdSinrD2D:mean -nan
scalar SingleCell_D2D.ueD2DTx[0].cellularNic.channelModel[0] rcvdSinrUl:mean 51.643708749159948
scalar SingleCell_D2D.ueD2DTx[0].cellularNic.channelModel[0] rcvdSinrDl:mean 74.828527535936018
scalar SingleCell_D2D.ueD2DTx[0].cellularNic packetDropInterfaceDown:count 0
scalar SingleCell_D2D.ueD2DTx[0].cellularNic packetDropInterfaceDown:sum(packetBytes) 0
scalar SingleCell_D2D.ueD2DTx[0].cellularNic packetDropNoCarrier:count 0
scalar SingleCell_D2D.ueD2DTx[0].cellularNic packetDropNoCarrier:sum(packetBytes) 0
scalar SingleCell_D2D.ueD2DTx[0].encap pauseSent:count 0
scalar SingleCell_D2D.ueD2DTx[0].encap pauseSent:sum 0
scalar SingleCell_D2D.ueD2DTx[0].encap decapPk:count 0
scalar SingleCell_D2D.ueD2DTx[0].encap decapPk:sum(packetBytes) 0
scalar SingleCell_D2D.ueD2DTx[0].encap encapPk:count 0
scalar SingleCell_D2D.ueD2DTx[0].encap encapPk:sum(packetBytes) 0
scalar SingleCell_D2D.ueD2DTx[0].ipv4.ip packetDropAddressResolutionFailed:count 0
scalar SingleCell_D2D.ueD2DTx[0].ipv4.ip packetDropAddressResolutionFailed:sum(packetBytes) 0
scalar SingleCell_D2D.ueD2DTx[0].ipv4.ip packetDropHopLimitReached:count 0
scalar SingleCell_D2D.ueD2DTx[0].ipv4.ip packetDropHopLimitReached:sum(packetBytes) 0
scalar SingleCell_D2D.ueD2DTx[0].ipv4.ip packetDropForwardingDisabled:count 0
scalar SingleCell_D2D.ueD2DTx[0].ipv4.ip packetDropForwardingDisabled:sum(packetBytes) 0
scalar SingleCell_D2D.ueD2DTx[0].ipv4.ip packetDropNoInterfaceFound:count 0
scalar SingleCell_D2D.ueD2DTx[0].ipv4.ip packetDropNoInterfaceFound:sum(packetBytes) 0
scalar SingleCell_D2D.ueD2DTx[0].ipv4.ip packetDropNoRouteFound:count 0
scalar SingleCell_D2D.ueD2DTx[0].ipv4.ip packetDropNoRouteFound:sum(packetBytes) 0
scalar SingleCell_D2D.ueD2DTx[0].ipv4.ip packetDropUndefined:count 0
scalar SingleCell_D2D.ueD2DTx[0].ipv4.ip packetDropUndefined:sum(packetBytes) 0
scalar SingleCell_D2D.ueD2DTx[0].ipv4.arp arpResolutionFailed:count 0
scalar SingleCell_D2D.ueD2DTx[0].ipv4.arp arpResolutionCompleted:count 0
scalar SingleCell_D2D.ueD2DTx[0].ipv4.arp arpResolutionInitiated:count 0
scalar SingleCell_D2D.ueD2DTx[0].ipv4.arp arpReplySent:count 0
scalar SingleCell_D2D.ueD2DTx[0].ipv4.arp arpReplySent:sum(packetBytes) 0
scalar SingleCell_D2D.ueD2DTx[0].ipv4.arp arpRequestSent:count 0
scalar SingleCell_D2D.ueD2DTx[0].ipv4.arp arpRequestSent:sum(packetBytes) 0
scalar SingleCell_D2D.ueD2DTx[0].udp packetReceived:count 0
scalar SingleCell_D2D.ueD2DTx[0].udp packetReceived:sum(packetBytes) 0
scalar SingleCell_D2D.ueD2DTx[0].udp packetSent:count 0
scalar SingleCell_D2D.ueD2DTx[0].udp packetSent:sum(packetBytes) 0
scalar SingleCell_D2D.ueD2DTx[0].udp passedUpPk:count 0
scalar SingleCell_D2D.ueD2DTx[0].udp droppedPkWrongPort:count 0
scalar SingleCell_D2D.ueD2DTx[0].udp droppedPkBadChecksum:count 0
scalar SingleCell_D2D.ueD2DTx[0].app[0] bytesRcvd 0
scalar SingleCell_D2D.ueD2DTx[0].app[0] bytesSent 1073741824
scalar SingleCell_D2D.ueD2DTx[0].app[0] packetReceived:count 0
scalar SingleCell_D2D.ueD2DTx[0].app[0] packetReceived:sum(packetBytes) 0
scalar SingleCell_D2D.ueD2DTx[0].app[0] packetSent:count 1
scalar SingleCell_D2D.ueD2DTx[0].app[0] packetSent:sum(packetBytes) 1073741824
scalar SingleCell_D2D.ueD2DTx[1].lo[0].lo rcvdPkFromHl:count 0
scalar SingleCell_D2D.ueD2DTx[1].lo[0].lo rcvdPkFromHl:sum(packetBytes) 0
scalar SingleCell_D2D.ueD2DTx[1].lo[0].lo passedUpPk:count 0
scalar SingleCell_D2D.ueD2DTx[1].lo[0].lo passedUpPk:sum(packetBytes) 0
scalar SingleCell_D2D.ueD2DTx[1].lo[0] packetDropInterfaceDown:count 0
scalar SingleCell_D2D.ueD2DTx[1].lo[0] packetDropInterfaceDown:sum(packetBytes) 0
scalar SingleCell_D2D.ueD2DTx[1].lo[0] packetDropNoCarrier:count 0
scalar SingleCell_D2D.ueD2DTx[1].lo[0] packetDropNoCarrier:sum(packetBytes) 0
scalar SingleCell_D2D.ueD2DTx[1].cellularNic.pdcp sentPacketToLowerLayer:count 1645
scalar SingleCell_D2D.ueD2DTx[1].cellularNic.pdcp sentPacketToLowerLayer:sum(packetBytes) 948097
scalar SingleCell_D2D.ueD2DTx[1].cellularNic.pdcp sentPacketToUpperLayer:count 1630
scalar SingleCell_D2D.ueD2DTx[1].cellularNic.pdcp sentPacketToUpperLayer:sum(packetBytes) 65204
scalar SingleCell_D2D.ueD2DTx[1].cellularNic.pdcp receivedPacketFromLowerLayer:count 1630
scalar SingleCell_D2D.ueD2DTx[1].cellularNic.pdcp receivedPacketFromLowerLayer:sum(packetBytes) 66834
scalar SingleCell_D2D.ueD2DTx[1].cellularNic.pdcp receivedPacketFromUpperLayer:count 1645
scalar SingleCell_D2D.ueD2DTx[1].cellularNic.pdcp receivedPacketFromUpperLayer:sum(packetBytes) 946452
scalar SingleCell_D2D.ueD2DTx[1].cellularNic.rlc.tm rlcPacketLossUl:mean -nan
scalar SingleCell_D2D.ueD2DTx[1].cellularNic.rlc.tm rlcPacketLossUl:sum 0
scalar SingleCell_D2D.ueD2DTx[1].cellularNic.rlc.tm rlcPacketLossDl:mean -nan
scalar SingleCell_D2D.ueD2DTx[1].cellularNic.rlc.tm rlcPacketLossDl:sum 0
scalar SingleCell_D2D.ueD2DTx[1].cellularNic.rlc.tm sentPacketToLowerLayer:count 0
scalar SingleCell_D2D.ueD2DTx[1].cellularNic.rlc.tm sentPacketToLowerLayer:sum(packetBytes) 0
scalar SingleCell_D2D.ueD2DTx[1].cellularNic.rlc.tm sentPacketToUpperLayer:count 0
scalar SingleCell_D2D.ueD2DTx[1].cellularNic.rlc.tm sentPacketToUpperLayer:sum(packetBytes) 0
scalar SingleCell_D2D.ueD2DTx[1].cellularNic.rlc.tm receivedPacketFromLowerLayer:count 0
scalar SingleCell_D2D.ueD2DTx[1].cellularNic.rlc.tm receivedPacketFromLowerLayer:sum(packetBytes) 0
scalar SingleCell_D2D.ueD2DTx[1].cellularNic.rlc.tm receivedPacketFromUpperLayer:count 0
scalar SingleCell_D2D.ueD2DTx[1].cellularNic.rlc.tm receivedPacketFromUpperLayer:sum(packetBytes) 0
scalar SingleCell_D2D.ueD2DTx[1].cellularNic.rlc.um rlcPacketLossTotal:mean 0
scalar SingleCell_D2D.ueD2DTx[1].cellularNic.rlc.um rlcCellThroughputUl:mean -nan
scalar SingleCell_D2D.ueD2DTx[1].cellularNic.rlc.um rlcCellThroughputDl:mean -nan
scalar SingleCell_D2D.ueD2DTx[1].cellularNic.rlc.um rlcPduThroughputUl:mean 0
scalar SingleCell_D2D.ueD2DTx[1].cellularNic.rlc.um rlcPduThroughputDl:mean 0
scalar SingleCell_D2D.ueD2DTx[1].cellularNic.rlc.um rlcPduDelayUl:mean 0.0040000000000000027
scalar SingleCell_D2D.ueD2DTx[1].cellularNic.rlc.um rlcPduDelayDl:mean 0.0040000000000000027
scalar SingleCell_D2D.ueD2DTx[1].cellularNic.rlc.um rlcThroughputUl:mean 162349.90643268233
scalar SingleCell_D2D.ueD2DTx[1].cellularNic.rlc.um rlcThroughputDl:mean 11435.984024574642
scalar SingleCell_D2D.ueD2DTx[1].cellularNic.rlc.um rlcDelayUl:mean 0.017769757912085193
scalar SingleCell_D2D.ueD2DTx[1].cellularNic.rlc.um rlcDelayDl:mean 0.016839877300613031
scalar SingleCell_D2D.ueD2DTx[1].cellularNic.rlc.um rlcPduPacketLossUl:mean 0
scalar SingleCell_D2D.ueD2DTx[1].cellularNic.rlc.um rlcPduPacketLossDl:mean 0
scalar SingleCell_D2D.ueD2DTx[1].cellularNic.rlc.um rlcPacketLossUl:mean 0
scalar SingleCell_D2D.ueD2DTx[1].cellularNic.rlc.um rlcPacketLossUl:sum 0
scalar SingleCell_D2D.ueD2DTx[1].cellularNic.rlc.um rlcPacketLossDl:mean 0
scalar SingleCell_D2D.ueD2DTx[1].cellularNic.rlc.um rlcPacketLossDl:sum 0
scalar SingleCell_D2D.ueD2DTx[1].cellularNic.rlc.um rlcCellPacketLossUl:mean -nan
scalar SingleCell_D2D.ueD2DTx[1].cellularNic.rlc.um rlcCellPacketLossDl:mean -nan
scalar SingleCell_D2D.ueD2DTx[1].cellularNic.rlc.um sentPacketToLowerLayer:count 927
scalar SingleCell_D2D.ueD2DTx[1].cellularNic.rlc.um sentPacketToLowerLayer:sum(packetBytes) 948882
scalar SingleCell_D2D.ueD2DTx[1].cellularNic.rlc.um sentPacketToUpperLayer:count 1630
scalar SingleCell_D2D.ueD2DTx[1].cellularNic.rlc.um sentPacketToUpperLayer:sum(packetBytes) 66834
scalar SingleCell_D2D.ueD2DTx[1].cellularNic.rlc.um receivedPacketFromLowerLayer:count 561
scalar SingleCell_D2D.ueD2DTx[1].cellularNic.rlc.um receivedPacketFromLowerLayer:sum(packetBytes) 67956
scalar SingleCell_D2D.ueD2DTx[1].cellularNic.rlc.um receivedPacketFromUpperLayer:count 1645
scalar SingleCell_D2D.ueD2DTx[1].cellularNic.rlc.um receivedPacketFromUpperLayer:sum(packetBytes) 948097
scalar SingleCell_D2D.ueD2DTx[1].cellularNic.rlc.am rlcPacketLossTotal:mean -nan
scalar SingleCell_D2D.ueD2DTx[1].cellularNic.rlc.am rlcCellThroughputUl:mean -nan
scalar SingleCell_D2D.ueD2DTx[1].cellularNic.rlc.am rlcCellThroughputDl:mean -nan
scalar SingleCell_D2D.ueD2DTx[1].cellularNic.rlc.am rlcPduThroughputUl:mean -nan
scalar SingleCell_D2D.ueD2DTx[1].cellularNic.rlc.am rlcPduThroughputDl:mean -nan
scalar SingleCell_D2D.ueD2DTx[1].cellularNic.rlc.am rlcPduDelayUl:mean -nan
scalar SingleCell_D2D.ueD2DTx[1].cellularNic.rlc.am rlcPduDelayDl:mean -nan
scalar SingleCell_D2D.ueD2DTx[1].cellularNic.rlc.am rlcThroughputUl:mean -nan
scalar SingleCell_D2D.ueD2DTx[1].cellularNic.rlc.am rlcThroughputDl:mean -nan
scalar SingleCell_D2D.ueD2DTx[1].cellularNic.rlc.am rlcDelayUl:mean -nan
scalar SingleCell_D2D.ueD2DTx[1].cellularNic.rlc.am rlcDelayDl:mean -nan
scalar SingleCell_D2D.ueD2DTx[1].cellularNic.rlc.am rlcPduPacketLossUl:mean -nan
scalar SingleCell_D2D.ueD2DTx[1].cellularNic.rlc.am rlcPduPacketLossDl:mean -nan
scalar SingleCell_D2D.ueD2DTx[1].cellularNic.rlc.am rlcPacketLossUl:mean -nan
scalar SingleCell_D2D.ueD2DTx[1].cellularNic.rlc.am rlcPacketLossDl:mean -nan
scalar SingleCell_D2D.ueD2DTx[1].cellularNic.rlc.am rlcCellPacketLossUl:mean -nan
scalar SingleCell_D2D.ueD2DTx[1].cellularNic.rlc.am rlcCellPacketLossDl:mean -nan
scalar SingleCell_D2D.ueD2DTx[1].cellularNic.mac harqTxAttemptsUl:mean 1
scalar SingleCell_D2D.ueD2DTx[1].cellularNic.mac harqTxAttemptsDl:mean 1
scalar SingleCell_D2D.ueD2DTx[1].cellularNic.mac harqErrorRate_4th_Ul:mean -nan
scalar SingleCell_D2D.ueD2DTx[1].cellularNic.mac harqErrorRate_4th_Dl:mean -nan
scalar SingleCell_D2D.ueD2DTx[1].cellularNic.mac harqErrorRate_3rd_Ul:mean -nan
scalar SingleCell_D2D.ueD2DTx[1].cellularNic.mac harqErrorRate_3rd_Dl:mean -nan
scalar SingleCell_D2D.ueD2DTx[1].cellularNic.mac harqErrorRate_2nd_Ul:mean -nan
scalar SingleCell_D2D.ueD2DTx[1].cellularNic.mac harqErrorRate_2nd_Dl:mean -nan
scalar SingleCell_D2D.ueD2DTx[1].cellularNic.mac harqErrorRate_1st_Ul:mean 0
scalar SingleCell_D2D.ueD2DTx[1].cellularNic.mac harqErrorRate_1st_Dl:mean 0
scalar SingleCell_D2D.ueD2DTx[1].cellularNic.mac harqErrorRateUl:mean 0
scalar SingleCell_D2D.ueD2DTx[1].cellularNic.mac harqErrorRateDl:mean 0
scalar SingleCell_D2D.ueD2DTx[1].cellularNic.mac macCellPacketLossUl:mean -nan
scalar SingleCell_D2D.ueD2DTx[1].cellularNic.mac macCellPacketLossDl:mean -nan
scalar SingleCell_D2D.ueD2DTx[1].cellularNic.mac macPacketLossUl:mean 0
scalar SingleCell_D2D.ueD2DTx[1].cellularNic.mac macPacketLossDl:mean 0
scalar SingleCell_D2D.ueD2DTx[1].cellularNic.mac macThroughputUl:mean 162991.25700645929
scalar SingleCell_D2D.ueD2DTx[1].cellularNic.mac macThroughputDl:mean 11654.24660288524
scalar SingleCell_D2D.ueD2DTx[1].cellularNic.mac macDelayUl:mean 0.0040000000000000027
scalar SingleCell_D2D.ueD2DTx[1].cellularNic.mac macDelayDl:mean 0.0040000000000000027
scalar SingleCell_D2D.ueD2DTx[1].cellularNic.mac macCellThroughputUl:mean -nan
scalar SingleCell_D2D.ueD2DTx[1].cellularNic.mac macCellThroughputDl:mean -nan
scalar SingleCell_D2D.ueD2DTx[1].cellularNic.mac sentPacketToLowerLayer:count 1901
scalar SingleCell_D2D.ueD2DTx[1].cellularNic.mac sentPacketToLowerLayer:sum(packetBytes) 951710
scalar SingleCell_D2D.ueD2DTx[1].cellularNic.mac sentPacketToUpperLayer:count 1488
scalar SingleCell_D2D.ueD2DTx[1].cellularNic.mac sentPacketToUpperLayer:sum(packetBytes) 68883
scalar SingleCell_D2D.ueD2DTx[1].cellularNic.mac receivedPacketFromLowerLayer:count 2830
scalar SingleCell_D2D.ueD2DTx[1].cellularNic.mac receivedPacketFromLowerLayer:sum(packetBytes) 71432
scalar SingleCell_D2D.ueD2DTx[1].cellularNic.mac receivedPacketFromUpperLayer:count 2572
scalar SingleCell_D2D.ueD2DTx[1].cellularNic.mac receivedPacketFromUpperLayer:sum(packetBytes) 1900269
scalar SingleCell_D2D.ueD2DTx[1].cellularNic.mac macBufferOverFlowD2D:mean -nan
scalar SingleCell_D2D.ueD2DTx[1].cellularNic.mac macBufferOverFlowUl:mean -nan
scalar SingleCell_D2D.ueD2DTx[1].cellularNic.mac macBufferOverFlowDl:mean -nan
scalar SingleCell_D2D.ueD2DTx[1].cellularNic.phy distance:mean -nan
scalar SingleCell_D2D.ueD2DTx[1].cellularNic.phy averageCqiUl:mean 15
scalar SingleCell_D2D.ueD2DTx[1].cellularNic.phy averageCqiUl:count 927
scalar SingleCell_D2D.ueD2DTx[1].cellularNic.phy averageCqiDl:mean 15
scalar SingleCell_D2D.ueD2DTx[1].cellularNic.phy averageCqiDl:count 562
scalar SingleCell_D2D.ueD2DTx[1].cellularNic.channelModel[0] measuredSinrUl:mean 57.832018875291546
scalar SingleCell_D2D.ueD2DTx[1].cellularNic.channelModel[0] measuredSinrDl:mean 68.902288379576902
scalar SingleCell_D2D.ueD2DTx[1].cellularNic.channelModel[0] rcvdSinrD2D:mean -nan
scalar SingleCell_D2D.ueD2DTx[1].cellularNic.channelModel[0] rcvdSinrUl:mean 55.975630739278607
scalar SingleCell_D2D.ueD2DTx[1].cellularNic.channelModel[0] rcvdSinrDl:mean 66.43305597578447
scalar SingleCell_D2D.ueD2DTx[1].cellularNic packetDropInterfaceDown:count 0
scalar SingleCell_D2D.ueD2DTx[1].cellularNic packetDropInterfaceDown:sum(packetBytes) 0
scalar SingleCell_D2D.ueD2DTx[1].cellularNic packetDropNoCarrier:count 0
scalar SingleCell_D2D.ueD2DTx[1].cellularNic packetDropNoCarrier:sum(packetBytes) 0
scalar SingleCell_D2D.ueD2DTx[1].encap pauseSent:count 0
scalar SingleCell_D2D.ueD2DTx[1].encap pauseSent:sum 0
scalar SingleCell_D2D.ueD2DTx[1].encap decapPk:count 0
scalar SingleCell_D2D.ueD2DTx[1].encap decapPk:sum(packetBytes) 0
scalar SingleCell_D2D.ueD2DTx[1].encap encapPk:count 0
scalar SingleCell_D2D.ueD2DTx[1].encap encapPk:sum(packetBytes) 0
scalar SingleCell_D2D.ueD2DTx[1].ipv4.ip packetDropAddressResolutionFailed:count 0
scalar SingleCell_D2D.ueD2DTx[1].ipv4.ip packetDropAddressResolutionFailed:sum(packetBytes) 0
scalar SingleCell_D2D.ueD2DTx[1].ipv4.ip packetDropHopLimitReached:count 0
scalar SingleCell_D2D.ueD2DTx[1].ipv4.ip packetDropHopLimitReached:sum(packetBytes) 0
scalar SingleCell_D2D.ueD2DTx[1].ipv4.ip packetDropForwardingDisabled:count 0
scalar SingleCell_D2D.ueD2DTx[1].ipv4.ip packetDropForwardingDisabled:sum(packetBytes) 0
scalar SingleCell_D2D.ueD2DTx[1].ipv4.ip packetDropNoInterfaceFound:count 0
scalar SingleCell_D2D.ueD2DTx[1].ipv4.ip packetDropNoInterfaceFound:sum(packetBytes) 0
scalar SingleCell_D2D.ueD2DTx[1].ipv4.ip packetDropNoRouteFound:count 0
scalar SingleCell_D2D.ueD2DTx[1].ipv4.ip packetDropNoRouteFound:sum(packetBytes) 0
scalar SingleCell_D2D.ueD2DTx[1].ipv4.ip packetDropUndefined:count 0
scalar SingleCell_D2D.ueD2DTx[1].ipv4.ip packetDropUndefined:sum(packetBytes) 0
scalar SingleCell_D2D.ueD2DTx[1].ipv4.arp arpResolutionFailed:count 0
scalar SingleCell_D2D.ueD2DTx[1].ipv4.arp arpResolutionCompleted:count 0
scalar SingleCell_D2D.ueD2DTx[1].ipv4.arp arpResolutionInitiated:count 0
scalar SingleCell_D2D.ueD2DTx[1].ipv4.arp arpReplySent:count 0
scalar SingleCell_D2D.ueD2DTx[1].ipv4.arp arpReplySent:sum(packetBytes) 0
scalar SingleCell_D2D.ueD2DTx[1].ipv4.arp arpRequestSent:count 0
scalar SingleCell_D2D.ueD2DTx[1].ipv4.arp arpRequestSent:sum(packetBytes) 0
scalar SingleCell_D2D.ueD2DTx[1].udp packetReceived:count 0
scalar SingleCell_D2D.ueD2DTx[1].udp packetReceived:sum(packetBytes) 0
scalar SingleCell_D2D.ueD2DTx[1].udp packetSent:count 0
scalar SingleCell_D2D.ueD2DTx[1].udp packetSent:sum(packetBytes) 0
scalar SingleCell_D2D.ueD2DTx[1].udp passedUpPk:count 0
scalar SingleCell_D2D.ueD2DTx[1].udp droppedPkWrongPort:count 0
scalar SingleCell_D2D.ueD2DTx[1].udp droppedPkBadChecksum:count 0
scalar SingleCell_D2D.ueD2DTx[1].app[0] bytesRcvd 0
scalar SingleCell_D2D.ueD2DTx[1].app[0] bytesSent 1073741824
scalar SingleCell_D2D.ueD2DTx[1].app[0] packetReceived:count 0
scalar SingleCell_D2D.ueD2DTx[1].app[0] packetReceived:sum(packetBytes) 0
scalar SingleCell_D2D.ueD2DTx[1].app[0] packetSent:count 1
scalar SingleCell_D2D.ueD2DTx[1].app[0] packetSent:sum(packetBytes) 1073741824
scalar SingleCell_D2D.ueD2DTx[2].lo[0].lo rcvdPkFromHl:count 0
scalar SingleCell_D2D.ueD2DTx[2].lo[0].lo rcvdPkFromHl:sum(packetBytes) 0
scalar SingleCell_D2D.ueD2DTx[2].lo[0].lo passedUpPk:count 0
scalar SingleCell_D2D.ueD2DTx[2].lo[0].lo passedUpPk:sum(packetBytes) 0
scalar SingleCell_D2D.ueD2DTx[2].lo[0] packetDropInterfaceDown:count 0
scalar SingleCell_D2D.ueD2DTx[2].lo[0] packetDropInterfaceDown:sum(packetBytes) 0
scalar SingleCell_D2D.ueD2DTx[2].lo[0] packetDropNoCarrier:count 0
scalar SingleCell_D2D.ueD2DTx[2].lo[0] packetDropNoCarrier:sum(packetBytes) 0
scalar SingleCell_D2D.ueD2DTx[2].cellularNic.pdcp sentPacketToLowerLayer:count 1673
scalar SingleCell_D2D.ueD2DTx[2].cellularNic.pdcp sentPacketToLowerLayer:sum(packetBytes) 964253
scalar SingleCell_D2D.ueD2DTx[2].cellularNic.pdcp sentPacketToUpperLayer:count 1658
scalar SingleCell_D2D.ueD2DTx[2].cellularNic.pdcp sentPacketToUpperLayer:sum(packetBytes) 66324
scalar SingleCell_D2D.ueD2DTx[2].cellularNic.pdcp receivedPacketFromLowerLayer:count 1658
scalar SingleCell_D2D.ueD2DTx[2].cellularNic.pdcp receivedPacketFromLowerLayer:sum(packetBytes) 67982
scalar SingleCell_D2D.ueD2DTx[2].cellularNic.pdcp receivedPacketFromUpperLayer:count 1673
scalar SingleCell_D2D.ueD2DTx[2].cellularNic.pdcp receivedPacketFromUpperLayer:sum(packetBytes) 962580
scalar SingleCell_D2D.ueD2DTx[2].cellularNic.rlc.tm rlcPacketLossUl:mean -nan
scalar SingleCell_D2D.ueD2DTx[2].cellularNic.rlc.tm rlcPacketLossUl:sum 0
scalar SingleCell_D2D.ueD2DTx[2].cellularNic.rlc.tm rlcPacketLossDl:mean -nan
scalar SingleCell_D2D.ueD2DTx[2].cellularNic.rlc.tm rlcPacketLossDl:sum 0
scalar SingleCell_D2D.ueD2DTx[2].cellularNic.rlc.tm sentPacketToLowerLayer:count 0
scalar SingleCell_D2D.ueD2DTx[2].cellularNic.rlc.tm sentPacketToLowerLayer:sum(packetBytes) 0
scalar SingleCell_D2D.ueD2DTx[2].cellularNic.rlc.tm sentPacketToUpperLayer:count 0
scalar SingleCell_D2D.ueD2DTx[2].cellularNic.rlc.tm sentPacketToUpperLayer:sum(packetBytes) 0
scalar SingleCell_D2D.ueD2DTx[2].cellularNic.rlc.tm receivedPacketFromLowerLayer:count 0
scalar SingleCell_D2D.ueD2DTx[2].cellularNic.rlc.tm receivedPacketFromLowerLayer:sum(packetBytes) 0
scalar SingleCell_D2D.ueD2DTx[2].cellularNic.rlc.tm receivedPacketFromUpperLayer:count 0
scalar SingleCell_D2D.ueD2DTx[2].cellularNic.rlc.tm receivedPacketFromUpperLayer:sum(packetBytes) 0
scalar SingleCell_D2D.ueD2DTx[2].cellularNic.rlc.um rlcPacketLossTotal:mean 0
scalar SingleCell_D2D.ueD2DTx[2].cellularNic.rlc.um rlcCellThroughputUl:mean -nan
scalar SingleCell_D2D.ueD2DTx[2].cellularNic.rlc.um rlcCellThroughputDl:mean -nan
scalar SingleCell_D2D.ueD2DTx[2].cellularNic.rlc.um rlcPduThroughputUl:mean 0
scalar SingleCell_D2D.ueD2DTx[2].cellularNic.rlc.um rlcPduThroughputDl:mean 0
scalar SingleCell_D2D.ueD2DTx[2].cellularNic.rlc.um rlcPduDelayUl:mean 0.0040000000000000027
scalar SingleCell_D2D.ueD2DTx[2].cellularNic.rlc.um rlcPduDelayDl:mean 0.0040000000000000027
scalar SingleCell_D2D.ueD2DTx[2].cellularNic.rlc.um rlcThroughputUl:mean 167140.61491995072
scalar SingleCell_D2D.ueD2DTx[2].cellularNic.rlc.um rlcThroughputDl:mean 11776.331213855297
scalar SingleCell_D2D.ueD2DTx[2].cellularNic.rlc.um rlcDelayUl:mean 0.017598464499114643
scalar SingleCell_D2D.ueD2DTx[2].cellularNic.rlc.um rlcDelayDl:mean 0.016904101326899488
scalar SingleCell_D2D.ueD2DTx[2].cellularNic.rlc.um rlcPduPacketLossUl:mean 0
scalar SingleCell_D2D.ueD2DTx[2].cellularNic.rlc.um rlcPduPacketLossDl:mean 0
scalar SingleCell_D2D.ueD2DTx[2].cellularNic.rlc.um rlcPacketLossUl:mean 0
scalar SingleCell_D2D.ueD2DTx[2].cellularNic.rlc.um rlcPacketLossUl:sum 0
scalar SingleCell_D2D.ueD2DTx[2].cellularNic.rlc.um rlcPacketLossDl:mean 0
scalar SingleCell_D2D.ueD2DTx[2].cellularNic.rlc.um rlcPacketLossDl:sum 0
scalar SingleCell_D2D.ueD2DTx[2].cellularNic.rlc.um rlcCellPacketLossUl:mean -nan
scalar SingleCell_D2D.ueD2DTx[2].cellularNic.rlc.um rlcCellPacketLossDl:mean -nan
scalar SingleCell_D2D.ueD2DTx[2].cellularNic.rlc.um sentPacketToLowerLayer:count 943
scalar SingleCell_D2D.ueD2DTx[2].cellularNic.rlc.um sentPacketToLowerLayer:sum(packetBytes) 961674
scalar SingleCell_D2D.ueD2DTx[2].cellularNic.rlc.um sentPacketToUpperLayer:count 1658
scalar SingleCell_D2D.ueD2DTx[2].cellularNic.rlc.um sentPacketToUpperLayer:sum(packetBytes) 67982
scalar SingleCell_D2D.ueD2DTx[2].cellularNic.rlc.um receivedPacketFromLowerLayer:count 624
scalar SingleCell_D2D.ueD2DTx[2].cellularNic.rlc.um receivedPacketFromLowerLayer:sum(packetBytes) 69230
scalar SingleCell_D2D.ueD2DTx[2].cellularNic.rlc.um receivedPacketFromUpperLayer:count 1673
scalar SingleCell_D2D.ueD2DTx[2].cellularNic.rlc.um receivedPacketFromUpperLayer:sum(packetBytes) 964253
scalar SingleCell_D2D.ueD2DTx[2].cellularNic.rlc.am rlcPacketLossTotal:mean -nan
scalar SingleCell_D2D.ueD2DTx[2].cellularNic.rlc.am rlcCellThroughputUl:mean -nan
scalar SingleCell_D2D.ueD2DTx[2].cellularNic.rlc.am rlcCellThroughputDl:mean -nan
scalar SingleCell_D2D.ueD2DTx[2].cellularNic.rlc.am rlcPduThroughputUl:mean -nan
scalar SingleCell_D2D.ueD2DTx[2].cellularNic.rlc.am rlcPduThroughputDl:mean -nan
scalar SingleCell_D2D.ueD2DTx[2].cellularNic.rlc.am rlcPduDelayUl:mean -nan
scalar SingleCell_D2D.ueD2DTx[2].cellularNic.rlc.am rlcPduDelayDl:mean -nan
scalar SingleCell_D2D.ueD2DTx[2].cellularNic.rlc.am rlcThroughputUl:mean -nan
scalar SingleCell_D2D.ueD2DTx[2].cellularNic.rlc.am rlcThroughputDl:mean -nan
scalar SingleCell_D2D.ueD2DTx[2].cellularNic.rlc.am rlcDelayUl:mean -nan
scalar SingleCell_D2D.ueD2DTx[2].cellularNic.rlc.am rlcDelayDl:mean -nan
scalar SingleCell_D2D.ueD2DTx[2].cellularNic.rlc.am rlcPduPacketLossUl:mean -nan
scalar SingleCell_D2D.ueD2DTx[2].cellularNic.rlc.am rlcPduPacketLossDl:mean -nan
scalar SingleCell_D2D.ueD2DTx[2].cellularNic.rlc.am rlcPacketLossUl:mean -nan
scalar SingleCell_D2D.ueD2DTx[2].cellularNic.rlc.am rlcPacketLossDl:mean -nan
scalar SingleCell_D2D.ueD2DTx[2].cellularNic.rlc.am rlcCellPacketLossUl:mean -nan
scalar SingleCell_D2D.ueD2DTx[2].cellularNic.rlc.am rlcCellPacketLossDl:mean -nan
scalar SingleCell_D2D.ueD2DTx[2].cellularNic.mac harqTxAttemptsUl:mean 1
scalar SingleCell_D2D.ueD2DTx[2].cellularNic.mac harqTxAttemptsDl:mean 1
scalar SingleCell_D2D.ueD2DTx[2].cellularNic.mac harqErrorRate_4th_Ul:mean -nan
scalar SingleCell_D2D.ueD2DTx[2].cellularNic.mac harqErrorRate_4th_Dl:mean -nan
scalar SingleCell_D2D.ueD2DTx[2].cellularNic.mac harqErrorRate_3rd_Ul:mean -nan
scalar SingleCell_D2D.ueD2DTx[2].cellularNic.mac harqErrorRate_3rd_Dl:mean -nan
scalar SingleCell_D2D.ueD2DTx[2].cellularNic.mac harqErrorRate_2nd_Ul:mean -nan
scalar SingleCell_D2D.ueD2DTx[2].cellularNic.mac harqErrorRate_2nd_Dl:mean -nan
scalar SingleCell_D2D.ueD2DTx[2].cellularNic.mac harqErrorRate_1st_Ul:mean 0
scalar SingleCell_D2D.ueD2DTx[2].cellularNic.mac harqErrorRate_1st_Dl:mean 0
scalar SingleCell_D2D.ueD2DTx[2].cellularNic.mac harqErrorRateUl:mean 0
scalar SingleCell_D2D.ueD2DTx[2].cellularNic.mac harqErrorRateDl:mean 0
scalar SingleCell_D2D.ueD2DTx[2].cellularNic.mac macCellPacketLossUl:mean -nan
scalar SingleCell_D2D.ueD2DTx[2].cellularNic.mac macCellPacketLossDl:mean -nan
scalar SingleCell_D2D.ueD2DTx[2].cellularNic.mac macPacketLossUl:mean 0
scalar SingleCell_D2D.ueD2DTx[2].cellularNic.mac macPacketLossDl:mean 0
scalar SingleCell_D2D.ueD2DTx[2].cellularNic.mac macThroughputUl:mean 167875.43683302792
scalar SingleCell_D2D.ueD2DTx[2].cellularNic.mac macThroughputDl:mean 12173.351935569301
scalar SingleCell_D2D.ueD2DTx[2].cellularNic.mac macDelayUl:mean 0.0040000000000000027
scalar SingleCell_D2D.ueD2DTx[2].cellularNic.mac macDelayDl:mean 0.0040000000000000027
scalar SingleCell_D2D.ueD2DTx[2].cellularNic.mac macCellThroughputUl:mean -nan
scalar SingleCell_D2D.ueD2DTx[2].cellularNic.mac macCellThroughputDl:mean -nan
scalar SingleCell_D2D.ueD2DTx[2].cellularNic.mac sentPacketToLowerLayer:count 1987
scalar SingleCell_D2D.ueD2DTx[2].cellularNic.mac sentPacketToLowerLayer:sum(packetBytes) 964604
scalar SingleCell_D2D.ueD2DTx[2].cellularNic.mac sentPacketToUpperLayer:count 1567
scalar SingleCell_D2D.ueD2DTx[2].cellularNic.mac sentPacketToUpperLayer:sum(packetBytes) 70173
scalar SingleCell_D2D.ueD2DTx[2].cellularNic.mac receivedPacketFromLowerLayer:count 2930
scalar SingleCell_D2D.ueD2DTx[2].cellularNic.mac receivedPacketFromLowerLayer:sum(packetBytes) 72784
scalar SingleCell_D2D.ueD2DTx[2].cellularNic.mac receivedPacketFromUpperLayer:count 2616
scalar SingleCell_D2D.ueD2DTx[2].cellularNic.mac receivedPacketFromUpperLayer:sum(packetBytes) 1929273
scalar SingleCell_D2D.ueD2DTx[2].cellularNic.mac macBufferOverFlowD2D:mean -nan
scalar SingleCell_D2D.ueD2DTx[2].cellularNic.mac macBufferOverFlowUl:mean -nan
scalar SingleCell_D2D.ueD2DTx[2].cellularNic.mac macBufferOverFlowDl:mean -nan
scalar SingleCell_D2D.ueD2DTx[2].cellularNic.phy distance:mean -nan
scalar SingleCell_D2D.ueD2DTx[2].cellularNic.phy averageCqiUl:mean 15
scalar SingleCell_D2D.ueD2DTx[2].cellularNic.phy averageCqiUl:count 943
scalar SingleCell_D2D.ueD2DTx[2].cellularNic.phy averageCqiDl:mean 15
scalar SingleCell_D2D.ueD2DTx[2].cellularNic.phy averageCqiDl:count 624
scalar SingleCell_D2D.ueD2DTx[2].cellularNic.channelModel[0] measuredSinrUl:mean 57.205252552369117
scalar SingleCell_D2D.ueD2DTx[2].cellularNic.channelModel[0] measuredSinrDl:mean 74.190061683186002
scalar SingleCell_D2D.ueD2DTx[2].cellularNic.channelModel[0] rcvdSinrD2D:mean -nan
scalar SingleCell_D2D.ueD2DTx[2].cellularNic.channelModel[0] rcvdSinrUl:mean 59.229388710204532
scalar SingleCell_D2D.ueD2DTx[2].cellularNic.channelModel[0] rcvdSinrDl:mean 77.043449860761655
scalar SingleCell_D2D.ueD2DTx[2].cellularNic packetDropInterfaceDown:count 0
scalar SingleCell_D2D.ueD2DTx[2].cellularNic packetDropInterfaceDown:sum(packetBytes) 0
scalar SingleCell_D2D.ueD2DTx[2].cellularNic packetDropNoCarrier:count 0
scalar SingleCell_D2D.ueD2DTx[2].cellularNic packetDropNoCarrier:sum(packetBytes) 0
scalar SingleCell_D2D.ueD2DTx[2].encap pauseSent:count 0
scalar SingleCell_D2D.ueD2DTx[2].encap pauseSent:sum 0
scalar SingleCell_D2D.ueD2DTx[2].encap decapPk:count 0
scalar SingleCell_D2D.ueD2DTx[2].encap decapPk:sum(packetBytes) 0
scalar SingleCell_D2D.ueD2DTx[2].encap encapPk:count 0
scalar SingleCell_D2D.ueD2DTx[2].encap encapPk:sum(packetBytes) 0
scalar SingleCell_D2D.ueD2DTx[2].ipv4.ip packetDropAddressResolutionFailed:count 0
scalar SingleCell_D2D.ueD2DTx[2].ipv4.ip packetDropAddressResolutionFailed:sum(packetBytes) 0
scalar SingleCell_D2D.ueD2DTx[2].ipv4.ip packetDropHopLimitReached:count 0
scalar SingleCell_D2D.ueD2DTx[2].ipv4.ip packetDropHopLimitReached:sum(packetBytes) 0
scalar SingleCell_D2D.ueD2DTx[2].ipv4.ip packetDropForwardingDisabled:count 0
scalar SingleCell_D2D.ueD2DTx[2].ipv4.ip packetDropForwardingDisabled:sum(packetBytes) 0
scalar SingleCell_D2D.ueD2DTx[2].ipv4.ip packetDropNoInterfaceFound:count 0
scalar SingleCell_D2D.ueD2DTx[2].ipv4.ip packetDropNoInterfaceFound:sum(packetBytes) 0
scalar SingleCell_D2D.ueD2DTx[2].ipv4.ip packetDropNoRouteFound:count 0
scalar SingleCell_D2D.ueD2DTx[2].ipv4.ip packetDropNoRouteFound:sum(packetBytes) 0
scalar SingleCell_D2D.ueD2DTx[2].ipv4.ip packetDropUndefined:count 0
scalar SingleCell_D2D.ueD2DTx[2].ipv4.ip packetDropUndefined:sum(packetBytes) 0
scalar SingleCell_D2D.ueD2DTx[2].ipv4.arp arpResolutionFailed:count 0
scalar SingleCell_D2D.ueD2DTx[2].ipv4.arp arpResolutionCompleted:count 0
scalar SingleCell_D2D.ueD2DTx[2].ipv4.arp arpResolutionInitiated:count 0
scalar SingleCell_D2D.ueD2DTx[2].ipv4.arp arpReplySent:count 0
scalar SingleCell_D2D.ueD2DTx[2].ipv4.arp arpReplySent:sum(packetBytes) 0
scalar SingleCell_D2D.ueD2DTx[2].ipv4.arp arpRequestSent:count 0
scalar SingleCell_D2D.ueD2DTx[2].ipv4.arp arpRequestSent:sum(packetBytes) 0
scalar SingleCell_D2D.ueD2DTx[2].udp packetReceived:count 0
scalar SingleCell_D2D.ueD2DTx[2].udp packetReceived:sum(packetBytes) 0
scalar SingleCell_D2D.ueD2DTx[2].udp packetSent:count 0
scalar SingleCell_D2D.ueD2DTx[2].udp packetSent:sum(packetBytes) 0
scalar SingleCell_D2D.ueD2DTx[2].udp passedUpPk:count 0
scalar SingleCell_D2D.ueD2DTx[2].udp droppedPkWrongPort:count 0
scalar SingleCell_D2D.ueD2DTx[2].udp droppedPkBadChecksum:count 0
scalar SingleCell_D2D.ueD2DTx[2].app[0] bytesRcvd 0
scalar SingleCell_D2D.ueD2DTx[2].app[0] bytesSent 1073741824
scalar SingleCell_D2D.ueD2DTx[2].app[0] packetReceived:count 0
scalar SingleCell_D2D.ueD2DTx[2].app[0] packetReceived:sum(packetBytes) 0
scalar SingleCell_D2D.ueD2DTx[2].app[0] packetSent:count 1
scalar SingleCell_D2D.ueD2DTx[2].app[0] packetSent:sum(packetBytes) 1073741824
scalar SingleCell_D2D.ueD2DTx[3].lo[0].lo rcvdPkFromHl:count 0
scalar SingleCell_D2D.ueD2DTx[3].lo[0].lo rcvdPkFromHl:sum(packetBytes) 0
scalar SingleCell_D2D.ueD2DTx[3].lo[0].lo passedUpPk:count 0
scalar SingleCell_D2D.ueD2DTx[3].lo[0].lo passedUpPk:sum(packetBytes) 0
scalar SingleCell_D2D.ueD2DTx[3].lo[0] packetDropInterfaceDown:count 0
scalar SingleCell_D2D.ueD2DTx[3].lo[0] packetDropInterfaceDown:sum(packetBytes) 0
scalar SingleCell_D2D.ueD2DTx[3].lo[0] packetDropNoCarrier:count 0
scalar SingleCell_D2D.ueD2DTx[3].lo[0] packetDropNoCarrier:sum(packetBytes) 0
scalar SingleCell_D2D.ueD2DTx[3].cellularNic.pdcp sentPacketToLowerLayer:count 1641
scalar SingleCell_D2D.ueD2DTx[3].cellularNic.pdcp sentPacketToLowerLayer:sum(packetBytes) 945789
scalar SingleCell_D2D.ueD2DTx[3].cellularNic.pdcp sentPacketToUpperLayer:count 1626
scalar SingleCell_D2D.ueD2DTx[3].cellularNic.pdcp sentPacketToUpperLayer:sum(packetBytes) 65044
scalar SingleCell_D2D.ueD2DTx[3].cellularNic.pdcp receivedPacketFromLowerLayer:count 1626
scalar SingleCell_D2D.ueD2DTx[3].cellularNic.pdcp receivedPacketFromLowerLayer:sum(packetBytes) 66670
scalar SingleCell_D2D.ueD2DTx[3].cellularNic.pdcp receivedPacketFromUpperLayer:count 1641
scalar SingleCell_D2D.ueD2DTx[3].cellularNic.pdcp receivedPacketFromUpperLayer:sum(packetBytes) 944148
scalar SingleCell_D2D.ueD2DTx[3].cellularNic.rlc.tm rlcPacketLossUl:mean -nan
scalar SingleCell_D2D.ueD2DTx[3].cellularNic.rlc.tm rlcPacketLossUl:sum 0
scalar SingleCell_D2D.ueD2DTx[3].cellularNic.rlc.tm rlcPacketLossDl:mean -nan
scalar SingleCell_D2D.ueD2DTx[3].cellularNic.rlc.tm rlcPacketLossDl:sum 0
scalar SingleCell_D2D.ueD2DTx[3].cellularNic.rlc.tm sentPacketToLowerLayer:count 0
scalar SingleCell_D2D.ueD2DTx[3].cellularNic.rlc.tm sentPacketToLowerLayer:sum(packetBytes) 0
scalar SingleCell_D2D.ueD2DTx[3].cellularNic.rlc.tm sentPacketToUpperLayer:count 0
scalar SingleCell_D2D.ueD2DTx[3].cellularNic.rlc.tm sentPacketToUpperLayer:sum(packetBytes) 0
scalar SingleCell_D2D.ueD2DTx[3].cellularNic.rlc.tm receivedPacketFromLowerLayer:count 0
scalar SingleCell_D2D.ueD2DTx[3].cellularNic.rlc.tm receivedPacketFromLowerLayer:sum(packetBytes) 0
scalar SingleCell_D2D.ueD2DTx[3].cellularNic.rlc.tm receivedPacketFromUpperLayer:count 0
scalar SingleCell_D2D.ueD2DTx[3].cellularNic.rlc.tm receivedPacketFromUpperLayer:sum(packetBytes) 0
scalar SingleCell_D2D.ueD2DTx[3].cellularNic.rlc.um rlcPacketLossTotal:mean 0
scalar SingleCell_D2D.ueD2DTx[3].cellularNic.rlc.um rlcCellThroughputUl:mean -nan
scalar SingleCell_D2D.ueD2DTx[3].cellularNic.rlc.um rlcCellThroughputDl:mean -nan
scalar SingleCell_D2D.ueD2DTx[3].cellularNic.rlc.um rlcPduThroughputUl:mean 0
scalar SingleCell_D2D.ueD2DTx[3].cellularNic.rlc.um rlcPduThroughputDl:mean 0
scalar SingleCell_D2D.ueD2DTx[3].cellularNic.rlc.um rlcPduDelayUl:mean 0.0040000000000000027
scalar SingleCell_D2D.ueD2DTx[3].cellularNic.rlc.um rlcPduDelayDl:mean 0.0040000000000000027
scalar SingleCell_D2D.ueD2DTx[3].cellularNic.rlc.um rlcThroughputUl:mean 160105.69233917355
scalar SingleCell_D2D.ueD2DTx[3].cellularNic.rlc.um rlcThroughputDl:mean 11279.320769191576
scalar SingleCell_D2D.ueD2DTx[3].cellularNic.rlc.um rlcDelayUl:mean 0.017476634292207364
scalar SingleCell_D2D.ueD2DTx[3].cellularNic.rlc.um rlcDelayDl:mean 0.016937884378843363
scalar SingleCell_D2D.ueD2DTx[3].cellularNic.rlc.um rlcPduPacketLossUl:mean 0
scalar SingleCell_D2D.ueD2DTx[3].cellularNic.rlc.um rlcPduPacketLossDl:mean 0
scalar SingleCell_D2D.ueD2DTx[3].cellularNic.rlc.um rlcPacketLossUl:mean 0
scalar SingleCell_D2D.ueD2DTx[3].cellularNic.rlc.um rlcPacketLossUl:sum 0
scalar SingleCell_D2D.ueD2DTx[3].cellularNic.rlc.um rlcPacketLossDl:mean 0
scalar SingleCell_D2D.ueD2DTx[3].cellularNic.rlc.um rlcPacketLossDl:sum 0
scalar SingleCell_D2D.ueD2DTx[3].cellularNic.rlc.um rlcCellPacketLossUl:mean -nan
scalar SingleCell_D2D.ueD2DTx[3].cellularNic.rlc.um rlcCellPacketLossDl:mean -nan
scalar SingleCell_D2D.ueD2DTx[3].cellularNic.rlc.um sentPacketToLowerLayer:count 926
scalar SingleCell_D2D.ueD2DTx[3].cellularNic.rlc.um sentPacketToLowerLayer:sum(packetBytes) 946572
scalar SingleCell_D2D.ueD2DTx[3].cellularNic.rlc.um sentPacketToUpperLayer:count 1626
scalar SingleCell_D2D.ueD2DTx[3].cellularNic.rlc.um sentPacketToUpperLayer:sum(packetBytes) 66670
scalar SingleCell_D2D.ueD2DTx[3].cellularNic.rlc.um receivedPacketFromLowerLayer:count 574
scalar SingleCell_D2D.ueD2DTx[3].cellularNic.rlc.um receivedPacketFromLowerLayer:sum(packetBytes) 67818
scalar SingleCell_D2D.ueD2DTx[3].cellularNic.rlc.um receivedPacketFromUpperLayer:count 1641
scalar SingleCell_D2D.ueD2DTx[3].cellularNic.rlc.um receivedPacketFromUpperLayer:sum(packetBytes) 945789
scalar SingleCell_D2D.ueD2DTx[3].cellularNic.rlc.am rlcPacketLossTotal:mean -nan
scalar SingleCell_D2D.ueD2DTx[3].cellularNic.rlc.am rlcCellThroughputUl:mean -nan
scalar SingleCell_D2D.ueD2DTx[3].cellularNic.rlc.am rlcCellThroughputDl:mean -nan
scalar SingleCell_D2D.ueD2DTx[3].cellularNic.rlc.am rlcPduThroughputUl:mean -nan
scalar SingleCell_D2D.ueD2DTx[3].cellularNic.rlc.am rlcPduThroughputDl:mean -nan
scalar SingleCell_D2D.ueD2DTx[3].cellularNic.rlc.am rlcPduDelayUl:mean -nan
scalar SingleCell_D2D.ueD2DTx[3].cellularNic.rlc.am rlcPduDelayDl:mean -nan
scalar SingleCell_D2D.ueD2DTx[3].cellularNic.rlc.am rlcThroughputUl:mean -nan
scalar SingleCell_D2D.ueD2DTx[3].cellularNic.rlc.am rlcThroughputDl:mean -nan
scalar SingleCell_D2D.ueD2DTx[3].cellularNic.rlc.am rlcDelayUl:mean -nan
scalar SingleCell_D2D.ueD2DTx[3].cellularNic.rlc.am rlcDelayDl:mean -nan
scalar SingleCell_D2D.ueD2DTx[3].cellularNic.rlc.am rlcPduPacketLossUl:mean -nan
scalar SingleCell_D2D.ueD2DTx[3].cellularNic.rlc.am rlcPduPacketLossDl:mean -nan
scalar SingleCell_D2D.ueD2DTx[3].cellularNic.rlc.am rlcPacketLossUl:mean -nan
scalar SingleCell_D2D.ueD2DTx[3].cellularNic.rlc.am rlcPacketLossDl:mean -nan
scalar SingleCell_D2D.ueD2DTx[3].cellularNic.rlc.am rlcCellPacketLossUl:mean -nan
scalar SingleCell_D2D.ueD2DTx[3].cellularNic.rlc.am rlcCellPacketLossDl:mean -nan
scalar SingleCell_D2D.ueD2DTx[3].cellularNic.mac harqTxAttemptsUl:mean 1
scalar SingleCell_D2D.ueD2DTx[3].cellularNic.mac harqTxAttemptsDl:mean 1
scalar SingleCell_D2D.ueD2DTx[3].cellularNic.mac harqErrorRate_4th_Ul:mean -nan
scalar SingleCell_D2D.ueD2DTx[3].cellularNic.mac harqErrorRate_4th_Dl:mean -nan
scalar SingleCell_D2D.ueD2DTx[3].cellularNic.mac harqErrorRate_3rd_Ul:mean -nan
scalar SingleCell_D2D.ueD2DTx[3].cellularNic.mac harqErrorRate_3rd_Dl:mean -nan
scalar SingleCell_D2D.ueD2DTx[3].cellularNic.mac harqErrorRate_2nd_Ul:mean -nan
scalar SingleCell_D2D.ueD2DTx[3].cellularNic.mac harqErrorRate_2nd_Dl:mean -nan
scalar SingleCell_D2D.ueD2DTx[3].cellularNic.mac harqErrorRate_1st_Ul:mean 0
scalar SingleCell_D2D.ueD2DTx[3].cellularNic.mac harqErrorRate_1st_Dl:mean 0
scalar SingleCell_D2D.ueD2DTx[3].cellularNic.mac harqErrorRateUl:mean 0
scalar SingleCell_D2D.ueD2DTx[3].cellularNic.mac harqErrorRateDl:mean 0
scalar SingleCell_D2D.ueD2DTx[3].cellularNic.mac macCellPacketLossUl:mean -nan
scalar SingleCell_D2D.ueD2DTx[3].cellularNic.mac macCellPacketLossDl:mean -nan
scalar SingleCell_D2D.ueD2DTx[3].cellularNic.mac macPacketLossUl:mean 0
scalar SingleCell_D2D.ueD2DTx[3].cellularNic.mac macPacketLossDl:mean 0
scalar SingleCell_D2D.ueD2DTx[3].cellularNic.mac macThroughputUl:mean 160770.08680943848
scalar SingleCell_D2D.ueD2DTx[3].cellularNic.mac macThroughputDl:mean 11526.73268282444
scalar SingleCell_D2D.ueD2DTx[3].cellularNic.mac macDelayUl:mean 0.0040000000000000027
scalar SingleCell_D2D.ueD2DTx[3].cellularNic.mac macDelayDl:mean 0.0040000000000000027
scalar SingleCell_D2D.ueD2DTx[3].cellularNic.mac macCellThroughputUl:mean -nan
scalar SingleCell_D2D.ueD2DTx[3].cellularNic.mac macCellThroughputDl:mean -nan
scalar SingleCell_D2D.ueD2DTx[3].cellularNic.mac sentPacketToLowerLayer:count 1911
scalar SingleCell_D2D.ueD2DTx[3].cellularNic.mac sentPacketToLowerLayer:sum(packetBytes) 949409
scalar SingleCell_D2D.ueD2DTx[3].cellularNic.mac sentPacketToUpperLayer:count 1500
scalar SingleCell_D2D.ueD2DTx[3].cellularNic.mac sentPacketToUpperLayer:sum(packetBytes) 68744
scalar SingleCell_D2D.ueD2DTx[3].cellularNic.mac receivedPacketFromLowerLayer:count 2836
scalar SingleCell_D2D.ueD2DTx[3].cellularNic.mac receivedPacketFromLowerLayer:sum(packetBytes) 71228
scalar SingleCell_D2D.ueD2DTx[3].cellularNic.mac receivedPacketFromUpperLayer:count 2567
scalar SingleCell_D2D.ueD2DTx[3].cellularNic.mac receivedPacketFromUpperLayer:sum(packetBytes) 1895643
scalar SingleCell_D2D.ueD2DTx[3].cellularNic.mac macBufferOverFlowD2D:mean -nan
scalar SingleCell_D2D.ueD2DTx[3].cellularNic.mac macBufferOverFlowUl:mean -nan
scalar SingleCell_D2D.ueD2DTx[3].cellularNic.mac macBufferOverFlowDl:mean -nan
scalar SingleCell_D2D.ueD2DTx[3].cellularNic.phy distance:mean -nan
scalar SingleCell_D2D.ueD2DTx[3].cellularNic.phy averageCqiUl:mean 15
scalar SingleCell_D2D.ueD2DTx[3].cellularNic.phy averageCqiUl:count 926
scalar SingleCell_D2D.ueD2DTx[3].cellularNic.phy averageCqiDl:mean 15
scalar SingleCell_D2D.ueD2DTx[3].cellularNic.phy averageCqiDl:count 574
scalar SingleCell_D2D.ueD2DTx[3].cellularNic.channelModel[0] measuredSinrUl:mean 60.698869685851541
scalar SingleCell_D2D.ueD2DTx[3].cellularNic.channelModel[0] measuredSinrDl:mean 65.681157917582908
scalar SingleCell_D2D.ueD2DTx[3].cellularNic.channelModel[0] rcvdSinrD2D:mean -nan
scalar SingleCell_D2D.ueD2DTx[3].cellularNic.channelModel[0] rcvdSinrUl:mean 61.552894819511508
scalar SingleCell_D2D.ueD2DTx[3].cellularNic.channelModel[0] rcvdSinrDl:mean 66.02676916698249
[...]
scalar SingleCell_D2D.ueD2DRx[0].tcp.conn-41 rcvAdv:vector:min 21776
scalar SingleCell_D2D.ueD2DRx[0].tcp.conn-41 rcvAdv:vector:max 898672
scalar SingleCell_D2D.ueD2DRx[0].tcp.conn-41 rcvAdv:vector:starttime 0.071000000000000008
scalar SingleCell_D2D.ueD2DRx[0].tcp.conn-41 rcvAdv:vector:endtime 5
scalar SingleCell_D2D.ueD2DRx[0].tcp.conn-41 sndNxt:vector:count 0
scalar SingleCell_D2D.ueD2DRx[0].tcp.conn-41 sndNxt:vector:sum 0
scalar SingleCell_D2D.ueD2DRx[0].tcp.conn-41 sndNxt:vector:sumweights 0
scalar SingleCell_D2D.ueD2DRx[0].tcp.conn-41 sndNxt:vector:mean -nan
scalar SingleCell_D2D.ueD2DRx[0].tcp.conn-41 sndNxt:vector:stddev nan
scalar SingleCell_D2D.ueD2DRx[0].tcp.conn-41 sndNxt:vector:min inf
scalar SingleCell_D2D.ueD2DRx[0].tcp.conn-41 sndNxt:vector:max -inf
scalar SingleCell_D2D.ueD2DRx[0].tcp.conn-41 sndNxt:vector:starttime nan
scalar SingleCell_D2D.ueD2DRx[0].tcp.conn-41 sndNxt:vector:endtime nan
scalar SingleCell_D2D.ueD2DRx[0].tcp.conn-41 sndAck:vector:count 1637
scalar SingleCell_D2D.ueD2DRx[0].tcp.conn-41 sndAck:vector:sum 741102640
scalar SingleCell_D2D.ueD2DRx[0].tcp.conn-41 sndAck:vector:sumweights 1637
scalar SingleCell_D2D.ueD2DRx[0].tcp.conn-41 sndAck:vector:mean 452720
scalar SingleCell_D2D.ueD2DRx[0].tcp.conn-41 sndAck:vector:stddev 253370.15382242636
scalar SingleCell_D2D.ueD2DRx[0].tcp.conn-41 sndAck:vector:min 14272
scalar SingleCell_D2D.ueD2DRx[0].tcp.conn-41 sndAck:vector:max 891168
scalar SingleCell_D2D.ueD2DRx[0].tcp.conn-41 sndAck:vector:starttime 0.071000000000000008
scalar SingleCell_D2D.ueD2DRx[0].tcp.conn-41 sndAck:vector:endtime 5
scalar SingleCell_D2D.ueD2DRx[0].tcp.conn-41 rcvSeq:vector:count 1637
scalar SingleCell_D2D.ueD2DRx[0].tcp.conn-41 rcvSeq:vector:sum 740225744
scalar SingleCell_D2D.ueD2DRx[0].tcp.conn-41 rcvSeq:vector:sumweights 1637
scalar SingleCell_D2D.ueD2DRx[0].tcp.conn-41 rcvSeq:vector:mean 452184.32742822234
scalar SingleCell_D2D.ueD2DRx[0].tcp.conn-41 rcvSeq:vector:stddev 253369.58721895082
scalar SingleCell_D2D.ueD2DRx[0].tcp.conn-41 rcvSeq:vector:min 14272
scalar SingleCell_D2D.ueD2DRx[0].tcp.conn-41 rcvSeq:vector:max 890632
scalar SingleCell_D2D.ueD2DRx[0].tcp.conn-41 rcvSeq:vector:starttime 0.099000000000000005
scalar SingleCell_D2D.ueD2DRx[0].tcp.conn-41 rcvSeq:vector:endtime 5
scalar SingleCell_D2D.ueD2DRx[0].tcp.conn-41 rcvAck:vector:count 1637
scalar SingleCell_D2D.ueD2DRx[0].tcp.conn-41 rcvAck:vector:sum 29058387
scalar SingleCell_D2D.ueD2DRx[0].tcp.conn-41 rcvAck:vector:sumweights 1637
scalar SingleCell_D2D.ueD2DRx[0].tcp.conn-41 rcvAck:vector:mean 17751
scalar SingleCell_D2D.ueD2DRx[0].tcp.conn-41 rcvAck:vector:stddev 0
scalar SingleCell_D2D.ueD2DRx[0].tcp.conn-41 rcvAck:vector:min 17751
scalar SingleCell_D2D.ueD2DRx[0].tcp.conn-41 rcvAck:vector:max 17751
scalar SingleCell_D2D.ueD2DRx[0].tcp.conn-41 rcvAck:vector:starttime 0.099000000000000005
scalar SingleCell_D2D.ueD2DRx[0].tcp.conn-41 rcvAck:vector:endtime 5
scalar SingleCell_D2D.ueD2DRx[0].tcp.conn-41 unacked:vector:count 1
scalar SingleCell_D2D.ueD2DRx[0].tcp.conn-41 unacked:vector:sum 0
scalar SingleCell_D2D.ueD2DRx[0].tcp.conn-41 unacked:vector:sumweights 1
scalar SingleCell_D2D.ueD2DRx[0].tcp.conn-41 unacked:vector:mean 0
scalar SingleCell_D2D.ueD2DRx[0].tcp.conn-41 unacked:vector:stddev nan
scalar SingleCell_D2D.ueD2DRx[0].tcp.conn-41 unacked:vector:min 0
scalar SingleCell_D2D.ueD2DRx[0].tcp.conn-41 unacked:vector:max 0
scalar SingleCell_D2D.ueD2DRx[0].tcp.conn-41 unacked:vector:starttime 0.099000000000000005
scalar SingleCell_D2D.ueD2DRx[0].tcp.conn-41 unacked:vector:endtime 0.099000000000000005
scalar SingleCell_D2D.ueD2DRx[0].tcp.conn-41 dupAcks:vector:count 1636
scalar SingleCell_D2D.ueD2DRx[0].tcp.conn-41 dupAcks:vector:sum 0
scalar SingleCell_D2D.ueD2DRx[0].tcp.conn-41 dupAcks:vector:sumweights 1636
scalar SingleCell_D2D.ueD2DRx[0].tcp.conn-41 dupAcks:vector:mean 0
scalar SingleCell_D2D.ueD2DRx[0].tcp.conn-41 dupAcks:vector:stddev 0
scalar SingleCell_D2D.ueD2DRx[0].tcp.conn-41 dupAcks:vector:min 0
scalar SingleCell_D2D.ueD2DRx[0].tcp.conn-41 dupAcks:vector:max 0
scalar SingleCell_D2D.ueD2DRx[0].tcp.conn-41 dupAcks:vector:starttime 0.29799999999999999
scalar SingleCell_D2D.ueD2DRx[0].tcp.conn-41 dupAcks:vector:endtime 5
scalar SingleCell_D2D.ueD2DRx[0].tcp.conn-41 pipe:vector:count 0
scalar SingleCell_D2D.ueD2DRx[0].tcp.conn-41 pipe:vector:sum 0
scalar SingleCell_D2D.ueD2DRx[0].tcp.conn-41 pipe:vector:sumweights 0
scalar SingleCell_D2D.ueD2DRx[0].tcp.conn-41 pipe:vector:mean -nan
scalar SingleCell_D2D.ueD2DRx[0].tcp.conn-41 pipe:vector:stddev nan
scalar SingleCell_D2D.ueD2DRx[0].tcp.conn-41 pipe:vector:min inf
scalar SingleCell_D2D.ueD2DRx[0].tcp.conn-41 pipe:vector:max -inf
scalar SingleCell_D2D.ueD2DRx[0].tcp.conn-41 pipe:vector:starttime nan
scalar SingleCell_D2D.ueD2DRx[0].tcp.conn-41 pipe:vector:endtime nan
scalar SingleCell_D2D.ueD2DRx[0].tcp.conn-41 sndSacks:vector:count 0
scalar SingleCell_D2D.ueD2DRx[0].tcp.conn-41 sndSacks:vector:sum 0
scalar SingleCell_D2D.ueD2DRx[0].tcp.conn-41 sndSacks:vector:sumweights 0
scalar SingleCell_D2D.ueD2DRx[0].tcp.conn-41 sndSacks:vector:mean -nan
scalar SingleCell_D2D.ueD2DRx[0].tcp.conn-41 sndSacks:vector:stddev nan
scalar SingleCell_D2D.ueD2DRx[0].tcp.conn-41 sndSacks:vector:min inf
scalar SingleCell_D2D.ueD2DRx[0].tcp.conn-41 sndSacks:vector:max -inf
scalar SingleCell_D2D.ueD2DRx[0].tcp.conn-41 sndSacks:vector:starttime nan
scalar SingleCell_D2D.ueD2DRx[0].tcp.conn-41 sndSacks:vector:endtime nan
scalar SingleCell_D2D.ueD2DRx[0].tcp.conn-41 rcvSacks:vector:count 0
scalar SingleCell_D2D.ueD2DRx[0].tcp.conn-41 rcvSacks:vector:sum 0
scalar SingleCell_D2D.ueD2DRx[0].tcp.conn-41 rcvSacks:vector:sumweights 0
scalar SingleCell_D2D.ueD2DRx[0].tcp.conn-41 rcvSacks:vector:mean -nan
scalar SingleCell_D2D.ueD2DRx[0].tcp.conn-41 rcvSacks:vector:stddev nan
scalar SingleCell_D2D.ueD2DRx[0].tcp.conn-41 rcvSacks:vector:min inf
scalar SingleCell_D2D.ueD2DRx[0].tcp.conn-41 rcvSacks:vector:max -inf
scalar SingleCell_D2D.ueD2DRx[0].tcp.conn-41 rcvSacks:vector:starttime nan
scalar SingleCell_D2D.ueD2DRx[0].tcp.conn-41 rcvSacks:vector:endtime nan
scalar SingleCell_D2D.ueD2DRx[0].tcp.conn-41 rcvOooSeg:vector:count 0
scalar SingleCell_D2D.ueD2DRx[0].tcp.conn-41 rcvOooSeg:vector:sum 0
scalar SingleCell_D2D.ueD2DRx[0].tcp.conn-41 rcvOooSeg:vector:sumweights 0
scalar SingleCell_D2D.ueD2DRx[0].tcp.conn-41 rcvOooSeg:vector:mean -nan
scalar SingleCell_D2D.ueD2DRx[0].tcp.conn-41 rcvOooSeg:vector:stddev nan
scalar SingleCell_D2D.ueD2DRx[0].tcp.conn-41 rcvOooSeg:vector:min inf
scalar SingleCell_D2D.ueD2DRx[0].tcp.conn-41 rcvOooSeg:vector:max -inf
scalar SingleCell_D2D.ueD2DRx[0].tcp.conn-41 rcvOooSeg:vector:starttime nan
scalar SingleCell_D2D.ueD2DRx[0].tcp.conn-41 rcvOooSeg:vector:endtime nan
scalar SingleCell_D2D.ueD2DRx[0].tcp.conn-41 rcvNASeg:vector:count 0
scalar SingleCell_D2D.ueD2DRx[0].tcp.conn-41 rcvNASeg:vector:sum 0
scalar SingleCell_D2D.ueD2DRx[0].tcp.conn-41 rcvNASeg:vector:sumweights 0
scalar SingleCell_D2D.ueD2DRx[0].tcp.conn-41 rcvNASeg:vector:mean -nan
scalar SingleCell_D2D.ueD2DRx[0].tcp.conn-41 rcvNASeg:vector:stddev nan
scalar SingleCell_D2D.ueD2DRx[0].tcp.conn-41 rcvNASeg:vector:min inf
scalar SingleCell_D2D.ueD2DRx[0].tcp.conn-41 rcvNASeg:vector:max -inf
scalar SingleCell_D2D.ueD2DRx[0].tcp.conn-41 rcvNASeg:vector:starttime nan
scalar SingleCell_D2D.ueD2DRx[0].tcp.conn-41 rcvNASeg:vector:endtime nan
scalar SingleCell_D2D.ueD2DRx[0].tcp.conn-41 sackedBytes:vector:count 0
scalar SingleCell_D2D.ueD2DRx[0].tcp.conn-41 sackedBytes:vector:sum 0
scalar SingleCell_D2D.ueD2DRx[0].tcp.conn-41 sackedBytes:vector:sumweights 0
scalar SingleCell_D2D.ueD2DRx[0].tcp.conn-41 sackedBytes:vector:mean -nan
scalar SingleCell_D2D.ueD2DRx[0].tcp.conn-41 sackedBytes:vector:stddev nan
scalar SingleCell_D2D.ueD2DRx[0].tcp.conn-41 sackedBytes:vector:min inf
scalar SingleCell_D2D.ueD2DRx[0].tcp.conn-41 sackedBytes:vector:max -inf
scalar SingleCell_D2D.ueD2DRx[0].tcp.conn-41 sackedBytes:vector:starttime nan
scalar SingleCell_D2D.ueD2DRx[0].tcp.conn-41 sackedBytes:vector:endtime nan
scalar SingleCell_D2D.ueD2DRx[0].tcp.conn-41 tcpRcvQueueBytes:vector:count 3273
scalar SingleCell_D2D.ueD2DRx[0].tcp.conn-41 tcpRcvQueueBytes:vector:sum 0
scalar SingleCell_D2D.ueD2DRx[0].tcp.conn-41 tcpRcvQueueBytes:vector:sumweights 3273
scalar SingleCell_D2D.ueD2DRx[0].tcp.conn-41 tcpRcvQueueBytes:vector:mean 0
scalar SingleCell_D2D.ueD2DRx[0].tcp.conn-41 tcpRcvQueueBytes:vector:stddev 0
scalar SingleCell_D2D.ueD2DRx[0].tcp.conn-41 tcpRcvQueueBytes:vector:min 0
scalar SingleCell_D2D.ueD2DRx[0].tcp.conn-41 tcpRcvQueueBytes:vector:max 0
scalar SingleCell_D2D.ueD2DRx[0].tcp.conn-41 tcpRcvQueueBytes:vector:starttime 0.071000000000000008
scalar SingleCell_D2D.ueD2DRx[0].tcp.conn-41 tcpRcvQueueBytes:vector:endtime 5
scalar SingleCell_D2D.ueD2DRx[0].tcp.conn-41 tcpRcvQueueDrops:vector:count 0
scalar SingleCell_D2D.ueD2DRx[0].tcp.conn-41 tcpRcvQueueDrops:vector:sum 0
scalar SingleCell_D2D.ueD2DRx[0].tcp.conn-41 tcpRcvQueueDrops:vector:sumweights 0
scalar SingleCell_D2D.ueD2DRx[0].tcp.conn-41 tcpRcvQueueDrops:vector:mean -nan
scalar SingleCell_D2D.ueD2DRx[0].tcp.conn-41 tcpRcvQueueDrops:vector:stddev nan
scalar SingleCell_D2D.ueD2DRx[0].tcp.conn-41 tcpRcvQueueDrops:vector:min inf
scalar SingleCell_D2D.ueD2DRx[0].tcp.conn-41 tcpRcvQueueDrops:vector:max -inf
scalar SingleCell_D2D.ueD2DRx[0].tcp.conn-41 tcpRcvQueueDrops:vector:starttime nan
scalar SingleCell_D2D.ueD2DRx[0].tcp.conn-41 tcpRcvQueueDrops:vector:endtime nan
scalar SingleCell_D2D.ueD2DRx[0].tcp.conn-41 tcpRcvPayloadBytes:vector:count 1637
scalar SingleCell_D2D.ueD2DRx[0].tcp.conn-41 tcpRcvPayloadBytes:vector:sum 876896
scalar SingleCell_D2D.ueD2DRx[0].tcp.conn-41 tcpRcvPayloadBytes:vector:sumweights 1637
scalar SingleCell_D2D.ueD2DRx[0].tcp.conn-41 tcpRcvPayloadBytes:vector:mean 535.67257177764202
scalar SingleCell_D2D.ueD2DRx[0].tcp.conn-41 tcpRcvPayloadBytes:vector:stddev 13.247698939207105
scalar SingleCell_D2D.ueD2DRx[0].tcp.conn-41 tcpRcvPayloadBytes:vector:min 0
scalar SingleCell_D2D.ueD2DRx[0].tcp.conn-41 tcpRcvPayloadBytes:vector:max 536
scalar SingleCell_D2D.ueD2DRx[0].tcp.conn-41 tcpRcvPayloadBytes:vector:starttime 0.099000000000000005
scalar SingleCell_D2D.ueD2DRx[0].tcp.conn-41 tcpRcvPayloadBytes:vector:endtime 5
scalar SingleCell_D2D.ueD2DRx[0].tcp.conn-41 cwnd:vector:count 0
scalar SingleCell_D2D.ueD2DRx[0].tcp.conn-41 cwnd:vector:sum 0
scalar SingleCell_D2D.ueD2DRx[0].tcp.conn-41 cwnd:vector:sumweights 0
scalar SingleCell_D2D.ueD2DRx[0].tcp.conn-41 cwnd:vector:mean -nan
scalar SingleCell_D2D.ueD2DRx[0].tcp.conn-41 cwnd:vector:stddev nan
scalar SingleCell_D2D.ueD2DRx[0].tcp.conn-41 cwnd:vector:min inf
scalar SingleCell_D2D.ueD2DRx[0].tcp.conn-41 cwnd:vector:max -inf
scalar SingleCell_D2D.ueD2DRx[0].tcp.conn-41 cwnd:vector:starttime nan
scalar SingleCell_D2D.ueD2DRx[0].tcp.conn-41 cwnd:vector:endtime nan
scalar SingleCell_D2D.ueD2DRx[0].tcp.conn-41 ssthresh:vector:count 0
scalar SingleCell_D2D.ueD2DRx[0].tcp.conn-41 ssthresh:vector:sum 0
scalar SingleCell_D2D.ueD2DRx[0].tcp.conn-41 ssthresh:vector:sumweights 0
scalar SingleCell_D2D.ueD2DRx[0].tcp.conn-41 ssthresh:vector:mean -nan
scalar SingleCell_D2D.ueD2DRx[0].tcp.conn-41 ssthresh:vector:stddev nan
scalar SingleCell_D2D.ueD2DRx[0].tcp.conn-41 ssthresh:vector:min inf
scalar SingleCell_D2D.ueD2DRx[0].tcp.conn-41 ssthresh:vector:max -inf
scalar SingleCell_D2D.ueD2DRx[0].tcp.conn-41 ssthresh:vector:starttime nan
scalar SingleCell_D2D.ueD2DRx[0].tcp.conn-41 ssthresh:vector:endtime nan
scalar SingleCell_D2D.ueD2DRx[0].tcp.conn-41 rtt:vector:count 0
scalar SingleCell_D2D.ueD2DRx[0].tcp.conn-41 rtt:vector:sum 0
scalar SingleCell_D2D.ueD2DRx[0].tcp.conn-41 rtt:vector:sumweights 0
scalar SingleCell_D2D.ueD2DRx[0].tcp.conn-41 rtt:vector:mean -nan
scalar SingleCell_D2D.ueD2DRx[0].tcp.conn-41 rtt:vector:stddev nan
scalar SingleCell_D2D.ueD2DRx[0].tcp.conn-41 rtt:vector:min inf
scalar SingleCell_D2D.ueD2DRx[0].tcp.conn-41 rtt:vector:max -inf
scalar SingleCell_D2D.ueD2DRx[0].tcp.conn-41 rtt:vector:starttime nan
scalar SingleCell_D2D.ueD2DRx[0].tcp.conn-41 rtt:vector:endtime nan
scalar SingleCell_D2D.ueD2DRx[0].tcp.conn-41 srtt:vector:count 0
scalar SingleCell_D2D.ueD2DRx[0].tcp.conn-41 srtt:vector:sum 0
scalar SingleCell_D2D.ueD2DRx[0].tcp.conn-41 srtt:vector:sumweights 0
scalar SingleCell_D2D.ueD2DRx[0].tcp.conn-41 srtt:vector:mean -nan
scalar SingleCell_D2D.ueD2DRx[0].tcp.conn-41 srtt:vector:stddev nan
scalar SingleCell_D2D.ueD2DRx[0].tcp.conn-41 srtt:vector:min inf
scalar SingleCell_D2D.ueD2DRx[0].tcp.conn-41 srtt:vector:max -inf
scalar SingleCell_D2D.ueD2DRx[0].tcp.conn-41 srtt:vector:starttime nan
scalar SingleCell_D2D.ueD2DRx[0].tcp.conn-41 srtt:vector:endtime nan
scalar SingleCell_D2D.ueD2DRx[0].tcp.conn-41 rttvar:vector:count 0
scalar SingleCell_D2D.ueD2DRx[0].tcp.conn-41 rttvar:vector:sum 0
scalar SingleCell_D2D.ueD2DRx[0].tcp.conn-41 rttvar:vector:sumweights 0
scalar SingleCell_D2D.ueD2DRx[0].tcp.conn-41 rttvar:vector:mean -nan
scalar SingleCell_D2D.ueD2DRx[0].tcp.conn-41 rttvar:vector:stddev nan
scalar SingleCell_D2D.ueD2DRx[0].tcp.conn-41 rttvar:vector:min inf
scalar SingleCell_D2D.ueD2DRx[0].tcp.conn-41 rttvar:vector:max -inf
scalar SingleCell_D2D.ueD2DRx[0].tcp.conn-41 rttvar:vector:starttime nan
scalar SingleCell_D2D.ueD2DRx[0].tcp.conn-41 rttvar:vector:endtime nan
scalar SingleCell_D2D.ueD2DRx[0].tcp.conn-41 rto:vector:count 0
scalar SingleCell_D2D.ueD2DRx[0].tcp.conn-41 rto:vector:sum 0
scalar SingleCell_D2D.ueD2DRx[0].tcp.conn-41 rto:vector:sumweights 0
scalar SingleCell_D2D.ueD2DRx[0].tcp.conn-41 rto:vector:mean -nan
scalar SingleCell_D2D.ueD2DRx[0].tcp.conn-41 rto:vector:stddev nan
scalar SingleCell_D2D.ueD2DRx[0].tcp.conn-41 rto:vector:min inf
scalar SingleCell_D2D.ueD2DRx[0].tcp.conn-41 rto:vector:max -inf
scalar SingleCell_D2D.ueD2DRx[0].tcp.conn-41 rto:vector:starttime nan
scalar SingleCell_D2D.ueD2DRx[0].tcp.conn-41 rto:vector:endtime nan
scalar SingleCell_D2D.ueD2DRx[0].tcp.conn-41 numRtos:vector:count 0
scalar SingleCell_D2D.ueD2DRx[0].tcp.conn-41 numRtos:vector:sum 0
scalar SingleCell_D2D.ueD2DRx[0].tcp.conn-41 numRtos:vector:sumweights 0
scalar SingleCell_D2D.ueD2DRx[0].tcp.conn-41 numRtos:vector:mean -nan
scalar SingleCell_D2D.ueD2DRx[0].tcp.conn-41 numRtos:vector:stddev nan
scalar SingleCell_D2D.ueD2DRx[0].tcp.conn-41 numRtos:vector:min inf
scalar SingleCell_D2D.ueD2DRx[0].tcp.conn-41 numRtos:vector:max -inf
scalar SingleCell_D2D.ueD2DRx[0].tcp.conn-41 numRtos:vector:starttime nan
scalar SingleCell_D2D.ueD2DRx[0].tcp.conn-41 numRtos:vector:endtime nan
scalar SingleCell_D2D.ueD2DRx[0].tcp.conn-41 load:vector:count 0
scalar SingleCell_D2D.ueD2DRx[0].tcp.conn-41 load:vector:sum 0
scalar SingleCell_D2D.ueD2DRx[0].tcp.conn-41 load:vector:sumweights 0
scalar SingleCell_D2D.ueD2DRx[0].tcp.conn-41 load:vector:mean -nan
scalar SingleCell_D2D.ueD2DRx[0].tcp.conn-41 load:vector:stddev nan
scalar SingleCell_D2D.ueD2DRx[0].tcp.conn-41 load:vector:min inf
scalar SingleCell_D2D.ueD2DRx[0].tcp.conn-41 load:vector:max -inf
scalar SingleCell_D2D.ueD2DRx[0].tcp.conn-41 load:vector:starttime nan
scalar SingleCell_D2D.ueD2DRx[0].tcp.conn-41 load:vector:endtime nan
scalar SingleCell_D2D.ueD2DRx[0].tcp.conn-41 calcLoad:vector:count 0
scalar SingleCell_D2D.ueD2DRx[0].tcp.conn-41 calcLoad:vector:sum 0
scalar SingleCell_D2D.ueD2DRx[0].tcp.conn-41 calcLoad:vector:sumweights 0
scalar SingleCell_D2D.ueD2DRx[0].tcp.conn-41 calcLoad:vector:mean -nan
scalar SingleCell_D2D.ueD2DRx[0].tcp.conn-41 calcLoad:vector:stddev nan
scalar SingleCell_D2D.ueD2DRx[0].tcp.conn-41 calcLoad:vector:min inf
scalar SingleCell_D2D.ueD2DRx[0].tcp.conn-41 calcLoad:vector:max -inf
scalar SingleCell_D2D.ueD2DRx[0].tcp.conn-41 calcLoad:vector:starttime nan
scalar SingleCell_D2D.ueD2DRx[0].tcp.conn-41 calcLoad:vector:endtime nan
scalar SingleCell_D2D.ueD2DRx[0].tcp.conn-41 markingProb:vector:count 0
scalar SingleCell_D2D.ueD2DRx[0].tcp.conn-41 markingProb:vector:sum 0
scalar SingleCell_D2D.ueD2DRx[0].tcp.conn-41 markingProb:vector:sumweights 0
scalar SingleCell_D2D.ueD2DRx[0].tcp.conn-41 markingProb:vector:mean -nan
scalar SingleCell_D2D.ueD2DRx[0].tcp.conn-41 markingProb:vector:stddev nan
scalar SingleCell_D2D.ueD2DRx[0].tcp.conn-41 markingProb:vector:min inf
scalar SingleCell_D2D.ueD2DRx[0].tcp.conn-41 markingProb:vector:max -inf
scalar SingleCell_D2D.ueD2DRx[0].tcp.conn-41 markingProb:vector:starttime nan
scalar SingleCell_D2D.ueD2DRx[0].tcp.conn-41 markingProb:vector:endtime nan
scalar SingleCell_D2D.ueD2DRx[3].app[0].thread_39 packetReceived:vector(packetBytes):count 1627
scalar SingleCell_D2D.ueD2DRx[3].app[0].thread_39 packetReceived:vector(packetBytes):sum 872072
scalar SingleCell_D2D.ueD2DRx[3].app[0].thread_39 packetReceived:vector(packetBytes):sumweights 1627
scalar SingleCell_D2D.ueD2DRx[3].app[0].thread_39 packetReceived:vector(packetBytes):mean 536
scalar SingleCell_D2D.ueD2DRx[3].app[0].thread_39 packetReceived:vector(packetBytes):stddev 0
scalar SingleCell_D2D.ueD2DRx[3].app[0].thread_39 packetReceived:vector(packetBytes):min 536
scalar SingleCell_D2D.ueD2DRx[3].app[0].thread_39 packetReceived:vector(packetBytes):max 536
scalar SingleCell_D2D.ueD2DRx[3].app[0].thread_39 packetReceived:vector(packetBytes):starttime 0.31900000000000001
scalar SingleCell_D2D.ueD2DRx[3].app[0].thread_39 packetReceived:vector(packetBytes):endtime 4.9900000000000002
scalar SingleCell_D2D.ueD2DRx[3].app[0].thread_39 endToEndDelay:vector:count 1627
scalar SingleCell_D2D.ueD2DRx[3].app[0].thread_39 endToEndDelay:vector:sum 3896.1156276095189
scalar SingleCell_D2D.ueD2DRx[3].app[0].thread_39 endToEndDelay:vector:sumweights 1627
scalar SingleCell_D2D.ueD2DRx[3].app[0].thread_39 endToEndDelay:vector:mean 2.3946623402639946
scalar SingleCell_D2D.ueD2DRx[3].app[0].thread_39 endToEndDelay:vector:stddev 1.3243495063792603
scalar SingleCell_D2D.ueD2DRx[3].app[0].thread_39 endToEndDelay:vector:min 0.019613170012000001
scalar SingleCell_D2D.ueD2DRx[3].app[0].thread_39 endToEndDelay:vector:max 4.690613170012
scalar SingleCell_D2D.ueD2DRx[3].app[0].thread_39 endToEndDelay:vector:starttime 0.31900000000000001
scalar SingleCell_D2D.ueD2DRx[3].app[0].thread_39 endToEndDelay:vector:endtime 4.9900000000000002
scalar SingleCell_D2D.ueD2DRx[0].app[0].thread_41 packetReceived:vector(packetBytes):count 1636
scalar SingleCell_D2D.ueD2DRx[0].app[0].thread_41 packetReceived:vector(packetBytes):sum 876896
scalar SingleCell_D2D.ueD2DRx[0].app[0].thread_41 packetReceived:vector(packetBytes):sumweights 1636
scalar SingleCell_D2D.ueD2DRx[0].app[0].thread_41 packetReceived:vector(packetBytes):mean 536
scalar SingleCell_D2D.ueD2DRx[0].app[0].thread_41 packetReceived:vector(packetBytes):stddev 0
scalar SingleCell_D2D.ueD2DRx[0].app[0].thread_41 packetReceived:vector(packetBytes):min 536
scalar SingleCell_D2D.ueD2DRx[0].app[0].thread_41 packetReceived:vector(packetBytes):max 536
scalar SingleCell_D2D.ueD2DRx[0].app[0].thread_41 packetReceived:vector(packetBytes):starttime 0.29799999999999999
scalar SingleCell_D2D.ueD2DRx[0].app[0].thread_41 packetReceived:vector(packetBytes):endtime 5
scalar SingleCell_D2D.ueD2DRx[0].app[0].thread_41 endToEndDelay:vector:count 1636
scalar SingleCell_D2D.ueD2DRx[0].app[0].thread_41 endToEndDelay:vector:sum 3943.6820681627332
scalar SingleCell_D2D.ueD2DRx[0].app[0].thread_41 endToEndDelay:vector:sumweights 1636
scalar SingleCell_D2D.ueD2DRx[0].app[0].thread_41 endToEndDelay:vector:mean 2.4105636113464142
scalar SingleCell_D2D.ueD2DRx[0].app[0].thread_41 endToEndDelay:vector:stddev 1.3314701084968255
scalar SingleCell_D2D.ueD2DRx[0].app[0].thread_41 endToEndDelay:vector:min 0.019785493987
scalar SingleCell_D2D.ueD2DRx[0].app[0].thread_41 endToEndDelay:vector:max 4.7217854939870003
scalar SingleCell_D2D.ueD2DRx[0].app[0].thread_41 endToEndDelay:vector:starttime 0.29799999999999999
scalar SingleCell_D2D.ueD2DRx[0].app[0].thread_41 endToEndDelay:vector:endtime 5

