version 3
run MultiplePairs-TCP-D2D-0-20260712-21:00:04-252998
attr configname MultiplePairs-TCP-D2D
attr datetime 20260712-21:00:04
attr datetimef 20260712-210004
attr experiment MultiplePairs-TCP-D2D
attr inifile omnetpp.ini
attr iterationvars $numPairs=5
attr iterationvarsd numPairs=5
attr iterationvarsf numPairs=5-
attr measurement $numPairs=5
attr network simu5g.simulations.nr.networks.SingleCell_Standalone_D2D
attr processid 252998
attr repetition 0
attr replication #0
attr resultdir results
attr runnumber 0
attr seedset 0
itervar numPairs 5
config **.param-recording false
config image-path /home/andras/projects/Simu5G-fork/simu5g-fork/images
config output-scalar-file results/omnetpp.ini-MultiplePairs-TCP-D2D-#0.sca
config output-scalar-precision 17
config output-vector-file results/omnetpp.ini-MultiplePairs-TCP-D2D-#0.vec
config output-vector-precision 17
config record-eventlog false
config sim-time-limit 20s
config extends MultiplePairs-TCP-Infra
config *.ueD2D*[*].cellularNic.d2dInitialMode true
config **.amcMode "\"D2D\""
config **.gnb.cellularNic.phy.enableD2DCqiReporting true
config **.usePreconfiguredTxParams false
config **.d2dCqi 7
config extends MultiplePairs
config **.vector-recording true
config *.ueD2D*[*].numApps 1
config *.ueD2DTx[*].app[*].typename TcpSessionApp
config *.ueD2DTx[*].app[*].connectPort 1000
config *.ueD2DTx[*].app[*].localPort 1000
config *.ueD2DTx[*].app[*].sendBytes 1GiB
config *.ueD2DTx[*].app[*].active true
config *.ueD2DTx[*].app[*].tOpen uniform(0.010s,0.1s)
config *.ueD2DTx[*].app[*].tSend uniform(0.15s,0.5s)
config *.ueD2DTx[*].app[*].connectAddress "\"ueD2DRx[\" + string(ancestorIndex(1)) + \"]\""
config *.ueD2DTx[*].app[*].localAddress "\"ueD2DTx[\" + string(ancestorIndex(1)) + \"]\""
config *.ueD2DRx[*].app[*].typename TcpSinkApp
config *.ueD2DRx[*].app[*].localPort 1000
config **.app[*].tClose -1s
config network simu5g.simulations.nr.networks.SingleCell_Standalone_D2D
config *.gnb.mobility.initialX 300m
config *.gnb.mobility.initialY 300m
config *.numUeCell 0
config *.numUeD2DTx 5
config *.numUeD2DRx 5
config *.ue*[*].servingNodeId 0
config *.ue*[*].nrServingNodeId 1
config *.ueD2D*[*].mobility.initialX uniform(290m,310m)
config *.ueD2D*[*].mobility.initialY uniform(340m,350m)
config sim-time-limit 20s
config warmup-period 0s
config repeat 3
config **.routingRecorder.enabled false
config output-scalar-file results/MultiplePairs-TCP-D2D/0.sca
config output-vector-file results/MultiplePairs-TCP-D2D/0.vec
config seed-set 0
config **.vector-recording false
config **.mobility.constraintAreaMaxX 1000m
config **.mobility.constraintAreaMaxY 1000m
config **.mobility.constraintAreaMinX 0m
config **.mobility.constraintAreaMinY 0m
config **.mobility.constraintAreaMinZ 0m
config **.mobility.constraintAreaMaxZ 0m
config **.mobility.initFromDisplayString false
config **.numBands 50
config **.ueTxPower 26dBm
config **.eNodeBTxPower 40dBm
config **.targetBler 0.01
config **.blerShift 5
config *.configurator.config "xmldoc(\"./demo.xml\")"

scalar SingleCell_Standalone_D2D.server.lo[0].lo rcvdPkFromHl:count 0
scalar SingleCell_Standalone_D2D.server.lo[0].lo rcvdPkFromHl:sum(packetBytes) 0
scalar SingleCell_Standalone_D2D.server.lo[0].lo passedUpPk:count 0
scalar SingleCell_Standalone_D2D.server.lo[0].lo passedUpPk:sum(packetBytes) 0
scalar SingleCell_Standalone_D2D.server.lo[0] packetDropInterfaceDown:count 0
scalar SingleCell_Standalone_D2D.server.lo[0] packetDropInterfaceDown:sum(packetBytes) 0
scalar SingleCell_Standalone_D2D.server.lo[0] packetDropNoCarrier:count 0
scalar SingleCell_Standalone_D2D.server.lo[0] packetDropNoCarrier:sum(packetBytes) 0
scalar SingleCell_Standalone_D2D.server.ppp[0].queue queueLength:last 0
scalar SingleCell_Standalone_D2D.server.ppp[0].queue queueLength:max 0
scalar SingleCell_Standalone_D2D.server.ppp[0].queue queueLength:timeavg 0
scalar SingleCell_Standalone_D2D.server.ppp[0].queue queueBitLength:last 0
scalar SingleCell_Standalone_D2D.server.ppp[0].queue queueBitLength:max 0
scalar SingleCell_Standalone_D2D.server.ppp[0].queue queueBitLength:timeavg 0
scalar SingleCell_Standalone_D2D.server.ppp[0].queue outgoingPackets:count 0
scalar SingleCell_Standalone_D2D.server.ppp[0].queue outgoingPacketLengths:sum 0
scalar SingleCell_Standalone_D2D.server.ppp[0].queue incomingPackets:count 0
scalar SingleCell_Standalone_D2D.server.ppp[0].queue incomingPacketLengths:sum 0
scalar SingleCell_Standalone_D2D.server.ppp[0].queue droppedPacketsQueueOverflow:count 0
scalar SingleCell_Standalone_D2D.server.ppp[0].queue droppedPacketLengthsQueueOverflow:sum 0
scalar SingleCell_Standalone_D2D.server.ppp[0].ppp transmissionState:timeavg 0
scalar SingleCell_Standalone_D2D.server.ppp[0].ppp rxPkOk:count 0
scalar SingleCell_Standalone_D2D.server.ppp[0].ppp rxPkOk:sum(packetBytes) 0
scalar SingleCell_Standalone_D2D.server.ppp[0].ppp txPk:count 0
scalar SingleCell_Standalone_D2D.server.ppp[0].ppp txPk:sum(packetBytes) 0
scalar SingleCell_Standalone_D2D.server.ppp[0].ppp rcvdPkFromHl:count 0
scalar SingleCell_Standalone_D2D.server.ppp[0].ppp rcvdPkFromHl:sum(packetBytes) 0
scalar SingleCell_Standalone_D2D.server.ppp[0].ppp passedUpPk:count 0
scalar SingleCell_Standalone_D2D.server.ppp[0].ppp passedUpPk:sum(packetBytes) 0
scalar SingleCell_Standalone_D2D.server.ppp[0].ppp packetDropIncorrectlyReceived:count 0
scalar SingleCell_Standalone_D2D.server.ppp[0].ppp packetDropIncorrectlyReceived:sum(packetBytes) 0
scalar SingleCell_Standalone_D2D.server.ppp[0].ppp packetDropInterfaceDown:count 0
scalar SingleCell_Standalone_D2D.server.ppp[0].ppp packetDropInterfaceDown:sum(packetBytes) 0
scalar SingleCell_Standalone_D2D.server.ppp[0] packetDropInterfaceDown:count 0
scalar SingleCell_Standalone_D2D.server.ppp[0] packetDropInterfaceDown:sum(packetBytes) 0
scalar SingleCell_Standalone_D2D.server.ppp[0] packetDropNoCarrier:count 0
scalar SingleCell_Standalone_D2D.server.ppp[0] packetDropNoCarrier:sum(packetBytes) 0
scalar SingleCell_Standalone_D2D.server.ipv4.ip packetDropAddressResolutionFailed:count 0
scalar SingleCell_Standalone_D2D.server.ipv4.ip packetDropAddressResolutionFailed:sum(packetBytes) 0
scalar SingleCell_Standalone_D2D.server.ipv4.ip packetDropHopLimitReached:count 0
scalar SingleCell_Standalone_D2D.server.ipv4.ip packetDropHopLimitReached:sum(packetBytes) 0
scalar SingleCell_Standalone_D2D.server.ipv4.ip packetDropForwardingDisabled:count 0
scalar SingleCell_Standalone_D2D.server.ipv4.ip packetDropForwardingDisabled:sum(packetBytes) 0
scalar SingleCell_Standalone_D2D.server.ipv4.ip packetDropNoInterfaceFound:count 0
scalar SingleCell_Standalone_D2D.server.ipv4.ip packetDropNoInterfaceFound:sum(packetBytes) 0
scalar SingleCell_Standalone_D2D.server.ipv4.ip packetDropNoRouteFound:count 0
scalar SingleCell_Standalone_D2D.server.ipv4.ip packetDropNoRouteFound:sum(packetBytes) 0
scalar SingleCell_Standalone_D2D.server.ipv4.ip packetDropUndefined:count 0
scalar SingleCell_Standalone_D2D.server.ipv4.ip packetDropUndefined:sum(packetBytes) 0
scalar SingleCell_Standalone_D2D.server.ipv4.arp arpResolutionFailed:count 0
scalar SingleCell_Standalone_D2D.server.ipv4.arp arpResolutionCompleted:count 0
scalar SingleCell_Standalone_D2D.server.ipv4.arp arpResolutionInitiated:count 0
scalar SingleCell_Standalone_D2D.server.ipv4.arp arpReplySent:count 0
scalar SingleCell_Standalone_D2D.server.ipv4.arp arpReplySent:sum(packetBytes) 0
scalar SingleCell_Standalone_D2D.server.ipv4.arp arpRequestSent:count 0
scalar SingleCell_Standalone_D2D.server.ipv4.arp arpRequestSent:sum(packetBytes) 0
scalar SingleCell_Standalone_D2D.server.udp packetReceived:count 0
scalar SingleCell_Standalone_D2D.server.udp packetReceived:sum(packetBytes) 0
scalar SingleCell_Standalone_D2D.server.udp packetSent:count 0
scalar SingleCell_Standalone_D2D.server.udp packetSent:sum(packetBytes) 0
scalar SingleCell_Standalone_D2D.server.udp passedUpPk:count 0
scalar SingleCell_Standalone_D2D.server.udp droppedPkWrongPort:count 0
scalar SingleCell_Standalone_D2D.server.udp droppedPkBadChecksum:count 0
scalar SingleCell_Standalone_D2D.router.lo[0].lo rcvdPkFromHl:count 0
scalar SingleCell_Standalone_D2D.router.lo[0].lo rcvdPkFromHl:sum(packetBytes) 0
scalar SingleCell_Standalone_D2D.router.lo[0].lo passedUpPk:count 0
scalar SingleCell_Standalone_D2D.router.lo[0].lo passedUpPk:sum(packetBytes) 0
scalar SingleCell_Standalone_D2D.router.lo[0] packetDropInterfaceDown:count 0
scalar SingleCell_Standalone_D2D.router.lo[0] packetDropInterfaceDown:sum(packetBytes) 0
scalar SingleCell_Standalone_D2D.router.lo[0] packetDropNoCarrier:count 0
scalar SingleCell_Standalone_D2D.router.lo[0] packetDropNoCarrier:sum(packetBytes) 0
scalar SingleCell_Standalone_D2D.router.ppp[0].queue queueLength:last 0
scalar SingleCell_Standalone_D2D.router.ppp[0].queue queueLength:max 0
scalar SingleCell_Standalone_D2D.router.ppp[0].queue queueLength:timeavg 0
scalar SingleCell_Standalone_D2D.router.ppp[0].queue queueBitLength:last 0
scalar SingleCell_Standalone_D2D.router.ppp[0].queue queueBitLength:max 0
scalar SingleCell_Standalone_D2D.router.ppp[0].queue queueBitLength:timeavg 0
scalar SingleCell_Standalone_D2D.router.ppp[0].queue outgoingPackets:count 0
scalar SingleCell_Standalone_D2D.router.ppp[0].queue outgoingPacketLengths:sum 0
scalar SingleCell_Standalone_D2D.router.ppp[0].queue incomingPackets:count 0
scalar SingleCell_Standalone_D2D.router.ppp[0].queue incomingPacketLengths:sum 0
scalar SingleCell_Standalone_D2D.router.ppp[0].queue droppedPacketsQueueOverflow:count 0
scalar SingleCell_Standalone_D2D.router.ppp[0].queue droppedPacketLengthsQueueOverflow:sum 0
scalar SingleCell_Standalone_D2D.router.ppp[0].ppp transmissionState:timeavg 0
scalar SingleCell_Standalone_D2D.router.ppp[0].ppp rxPkOk:count 0
scalar SingleCell_Standalone_D2D.router.ppp[0].ppp rxPkOk:sum(packetBytes) 0
scalar SingleCell_Standalone_D2D.router.ppp[0].ppp txPk:count 0
scalar SingleCell_Standalone_D2D.router.ppp[0].ppp txPk:sum(packetBytes) 0
scalar SingleCell_Standalone_D2D.router.ppp[0].ppp rcvdPkFromHl:count 0
scalar SingleCell_Standalone_D2D.router.ppp[0].ppp rcvdPkFromHl:sum(packetBytes) 0
scalar SingleCell_Standalone_D2D.router.ppp[0].ppp passedUpPk:count 0
scalar SingleCell_Standalone_D2D.router.ppp[0].ppp passedUpPk:sum(packetBytes) 0
scalar SingleCell_Standalone_D2D.router.ppp[0].ppp packetDropIncorrectlyReceived:count 0
scalar SingleCell_Standalone_D2D.router.ppp[0].ppp packetDropIncorrectlyReceived:sum(packetBytes) 0
scalar SingleCell_Standalone_D2D.router.ppp[0].ppp packetDropInterfaceDown:count 0
scalar SingleCell_Standalone_D2D.router.ppp[0].ppp packetDropInterfaceDown:sum(packetBytes) 0
scalar SingleCell_Standalone_D2D.router.ppp[0] packetDropInterfaceDown:count 0
scalar SingleCell_Standalone_D2D.router.ppp[0] packetDropInterfaceDown:sum(packetBytes) 0
scalar SingleCell_Standalone_D2D.router.ppp[0] packetDropNoCarrier:count 0
scalar SingleCell_Standalone_D2D.router.ppp[0] packetDropNoCarrier:sum(packetBytes) 0
scalar SingleCell_Standalone_D2D.router.ppp[1].queue queueLength:last 0
scalar SingleCell_Standalone_D2D.router.ppp[1].queue queueLength:max 0
scalar SingleCell_Standalone_D2D.router.ppp[1].queue queueLength:timeavg 0
scalar SingleCell_Standalone_D2D.router.ppp[1].queue queueBitLength:last 0
scalar SingleCell_Standalone_D2D.router.ppp[1].queue queueBitLength:max 0
scalar SingleCell_Standalone_D2D.router.ppp[1].queue queueBitLength:timeavg 0
scalar SingleCell_Standalone_D2D.router.ppp[1].queue outgoingPackets:count 0
scalar SingleCell_Standalone_D2D.router.ppp[1].queue outgoingPacketLengths:sum 0
scalar SingleCell_Standalone_D2D.router.ppp[1].queue incomingPackets:count 0
scalar SingleCell_Standalone_D2D.router.ppp[1].queue incomingPacketLengths:sum 0
scalar SingleCell_Standalone_D2D.router.ppp[1].queue droppedPacketsQueueOverflow:count 0
scalar SingleCell_Standalone_D2D.router.ppp[1].queue droppedPacketLengthsQueueOverflow:sum 0
scalar SingleCell_Standalone_D2D.router.ppp[1].ppp transmissionState:timeavg 0
scalar SingleCell_Standalone_D2D.router.ppp[1].ppp rxPkOk:count 0
scalar SingleCell_Standalone_D2D.router.ppp[1].ppp rxPkOk:sum(packetBytes) 0
scalar SingleCell_Standalone_D2D.router.ppp[1].ppp txPk:count 0
scalar SingleCell_Standalone_D2D.router.ppp[1].ppp txPk:sum(packetBytes) 0
scalar SingleCell_Standalone_D2D.router.ppp[1].ppp rcvdPkFromHl:count 0
scalar SingleCell_Standalone_D2D.router.ppp[1].ppp rcvdPkFromHl:sum(packetBytes) 0
scalar SingleCell_Standalone_D2D.router.ppp[1].ppp passedUpPk:count 0
scalar SingleCell_Standalone_D2D.router.ppp[1].ppp passedUpPk:sum(packetBytes) 0
scalar SingleCell_Standalone_D2D.router.ppp[1].ppp packetDropIncorrectlyReceived:count 0
scalar SingleCell_Standalone_D2D.router.ppp[1].ppp packetDropIncorrectlyReceived:sum(packetBytes) 0
scalar SingleCell_Standalone_D2D.router.ppp[1].ppp packetDropInterfaceDown:count 0
scalar SingleCell_Standalone_D2D.router.ppp[1].ppp packetDropInterfaceDown:sum(packetBytes) 0
scalar SingleCell_Standalone_D2D.router.ppp[1] packetDropInterfaceDown:count 0
scalar SingleCell_Standalone_D2D.router.ppp[1] packetDropInterfaceDown:sum(packetBytes) 0
scalar SingleCell_Standalone_D2D.router.ppp[1] packetDropNoCarrier:count 0
scalar SingleCell_Standalone_D2D.router.ppp[1] packetDropNoCarrier:sum(packetBytes) 0
scalar SingleCell_Standalone_D2D.router.ipv4.ip packetDropAddressResolutionFailed:count 0
scalar SingleCell_Standalone_D2D.router.ipv4.ip packetDropAddressResolutionFailed:sum(packetBytes) 0
scalar SingleCell_Standalone_D2D.router.ipv4.ip packetDropHopLimitReached:count 0
scalar SingleCell_Standalone_D2D.router.ipv4.ip packetDropHopLimitReached:sum(packetBytes) 0
scalar SingleCell_Standalone_D2D.router.ipv4.ip packetDropForwardingDisabled:count 0
scalar SingleCell_Standalone_D2D.router.ipv4.ip packetDropForwardingDisabled:sum(packetBytes) 0
scalar SingleCell_Standalone_D2D.router.ipv4.ip packetDropNoInterfaceFound:count 0
scalar SingleCell_Standalone_D2D.router.ipv4.ip packetDropNoInterfaceFound:sum(packetBytes) 0
scalar SingleCell_Standalone_D2D.router.ipv4.ip packetDropNoRouteFound:count 0
scalar SingleCell_Standalone_D2D.router.ipv4.ip packetDropNoRouteFound:sum(packetBytes) 0
scalar SingleCell_Standalone_D2D.router.ipv4.ip packetDropUndefined:count 0
scalar SingleCell_Standalone_D2D.router.ipv4.ip packetDropUndefined:sum(packetBytes) 0
scalar SingleCell_Standalone_D2D.router.ipv4.arp arpResolutionFailed:count 0
scalar SingleCell_Standalone_D2D.router.ipv4.arp arpResolutionCompleted:count 0
scalar SingleCell_Standalone_D2D.router.ipv4.arp arpResolutionInitiated:count 0
scalar SingleCell_Standalone_D2D.router.ipv4.arp arpReplySent:count 0
scalar SingleCell_Standalone_D2D.router.ipv4.arp arpReplySent:sum(packetBytes) 0
scalar SingleCell_Standalone_D2D.router.ipv4.arp arpRequestSent:count 0
scalar SingleCell_Standalone_D2D.router.ipv4.arp arpRequestSent:sum(packetBytes) 0
scalar SingleCell_Standalone_D2D.upf.lo[0].lo rcvdPkFromHl:count 0
scalar SingleCell_Standalone_D2D.upf.lo[0].lo rcvdPkFromHl:sum(packetBytes) 0
scalar SingleCell_Standalone_D2D.upf.lo[0].lo passedUpPk:count 0
scalar SingleCell_Standalone_D2D.upf.lo[0].lo passedUpPk:sum(packetBytes) 0
scalar SingleCell_Standalone_D2D.upf.lo[0] packetDropInterfaceDown:count 0
scalar SingleCell_Standalone_D2D.upf.lo[0] packetDropInterfaceDown:sum(packetBytes) 0
scalar SingleCell_Standalone_D2D.upf.lo[0] packetDropNoCarrier:count 0
scalar SingleCell_Standalone_D2D.upf.lo[0] packetDropNoCarrier:sum(packetBytes) 0
scalar SingleCell_Standalone_D2D.upf.ppp[0].queue queueLength:last 0
scalar SingleCell_Standalone_D2D.upf.ppp[0].queue queueLength:max 0
scalar SingleCell_Standalone_D2D.upf.ppp[0].queue queueLength:timeavg 0
scalar SingleCell_Standalone_D2D.upf.ppp[0].queue queueBitLength:last 0
scalar SingleCell_Standalone_D2D.upf.ppp[0].queue queueBitLength:max 0
scalar SingleCell_Standalone_D2D.upf.ppp[0].queue queueBitLength:timeavg 0
scalar SingleCell_Standalone_D2D.upf.ppp[0].queue outgoingPackets:count 0
scalar SingleCell_Standalone_D2D.upf.ppp[0].queue outgoingPacketLengths:sum 0
scalar SingleCell_Standalone_D2D.upf.ppp[0].queue incomingPackets:count 0
scalar SingleCell_Standalone_D2D.upf.ppp[0].queue incomingPacketLengths:sum 0
scalar SingleCell_Standalone_D2D.upf.ppp[0].queue droppedPacketsQueueOverflow:count 0
scalar SingleCell_Standalone_D2D.upf.ppp[0].queue droppedPacketLengthsQueueOverflow:sum 0
scalar SingleCell_Standalone_D2D.upf.ppp[0].ppp transmissionState:timeavg 0
scalar SingleCell_Standalone_D2D.upf.ppp[0].ppp rxPkOk:count 0
scalar SingleCell_Standalone_D2D.upf.ppp[0].ppp rxPkOk:sum(packetBytes) 0
scalar SingleCell_Standalone_D2D.upf.ppp[0].ppp txPk:count 0
scalar SingleCell_Standalone_D2D.upf.ppp[0].ppp txPk:sum(packetBytes) 0
scalar SingleCell_Standalone_D2D.upf.ppp[0].ppp rcvdPkFromHl:count 0
scalar SingleCell_Standalone_D2D.upf.ppp[0].ppp rcvdPkFromHl:sum(packetBytes) 0
scalar SingleCell_Standalone_D2D.upf.ppp[0].ppp passedUpPk:count 0
scalar SingleCell_Standalone_D2D.upf.ppp[0].ppp passedUpPk:sum(packetBytes) 0
scalar SingleCell_Standalone_D2D.upf.ppp[0].ppp packetDropIncorrectlyReceived:count 0
scalar SingleCell_Standalone_D2D.upf.ppp[0].ppp packetDropIncorrectlyReceived:sum(packetBytes) 0
scalar SingleCell_Standalone_D2D.upf.ppp[0].ppp packetDropInterfaceDown:count 0
scalar SingleCell_Standalone_D2D.upf.ppp[0].ppp packetDropInterfaceDown:sum(packetBytes) 0
scalar SingleCell_Standalone_D2D.upf.ppp[0] packetDropInterfaceDown:count 0
scalar SingleCell_Standalone_D2D.upf.ppp[0] packetDropInterfaceDown:sum(packetBytes) 0
scalar SingleCell_Standalone_D2D.upf.ppp[0] packetDropNoCarrier:count 0
scalar SingleCell_Standalone_D2D.upf.ppp[0] packetDropNoCarrier:sum(packetBytes) 0
scalar SingleCell_Standalone_D2D.upf.ipv4.ip packetDropAddressResolutionFailed:count 0
scalar SingleCell_Standalone_D2D.upf.ipv4.ip packetDropAddressResolutionFailed:sum(packetBytes) 0
scalar SingleCell_Standalone_D2D.upf.ipv4.ip packetDropHopLimitReached:count 0
scalar SingleCell_Standalone_D2D.upf.ipv4.ip packetDropHopLimitReached:sum(packetBytes) 0
scalar SingleCell_Standalone_D2D.upf.ipv4.ip packetDropForwardingDisabled:count 0
scalar SingleCell_Standalone_D2D.upf.ipv4.ip packetDropForwardingDisabled:sum(packetBytes) 0
scalar SingleCell_Standalone_D2D.upf.ipv4.ip packetDropNoInterfaceFound:count 0
scalar SingleCell_Standalone_D2D.upf.ipv4.ip packetDropNoInterfaceFound:sum(packetBytes) 0
scalar SingleCell_Standalone_D2D.upf.ipv4.ip packetDropNoRouteFound:count 0
scalar SingleCell_Standalone_D2D.upf.ipv4.ip packetDropNoRouteFound:sum(packetBytes) 0
scalar SingleCell_Standalone_D2D.upf.ipv4.ip packetDropUndefined:count 0
scalar SingleCell_Standalone_D2D.upf.ipv4.ip packetDropUndefined:sum(packetBytes) 0
scalar SingleCell_Standalone_D2D.upf.ipv4.arp arpResolutionFailed:count 0
scalar SingleCell_Standalone_D2D.upf.ipv4.arp arpResolutionCompleted:count 0
scalar SingleCell_Standalone_D2D.upf.ipv4.arp arpResolutionInitiated:count 0
scalar SingleCell_Standalone_D2D.upf.ipv4.arp arpReplySent:count 0
scalar SingleCell_Standalone_D2D.upf.ipv4.arp arpReplySent:sum(packetBytes) 0
scalar SingleCell_Standalone_D2D.upf.ipv4.arp arpRequestSent:count 0
scalar SingleCell_Standalone_D2D.upf.ipv4.arp arpRequestSent:sum(packetBytes) 0
scalar SingleCell_Standalone_D2D.upf.udp packetReceived:count 0
scalar SingleCell_Standalone_D2D.upf.udp packetReceived:sum(packetBytes) 0
scalar SingleCell_Standalone_D2D.upf.udp packetSent:count 0
scalar SingleCell_Standalone_D2D.upf.udp packetSent:sum(packetBytes) 0
scalar SingleCell_Standalone_D2D.upf.udp passedUpPk:count 0
scalar SingleCell_Standalone_D2D.upf.udp droppedPkWrongPort:count 0
scalar SingleCell_Standalone_D2D.upf.udp droppedPkBadChecksum:count 0
scalar SingleCell_Standalone_D2D.upf.dnPpp.queue queueLength:last 0
scalar SingleCell_Standalone_D2D.upf.dnPpp.queue queueLength:max 0
scalar SingleCell_Standalone_D2D.upf.dnPpp.queue queueLength:timeavg 0
scalar SingleCell_Standalone_D2D.upf.dnPpp.queue queueBitLength:last 0
scalar SingleCell_Standalone_D2D.upf.dnPpp.queue queueBitLength:max 0
scalar SingleCell_Standalone_D2D.upf.dnPpp.queue queueBitLength:timeavg 0
scalar SingleCell_Standalone_D2D.upf.dnPpp.queue outgoingPackets:count 0
scalar SingleCell_Standalone_D2D.upf.dnPpp.queue outgoingPacketLengths:sum 0
scalar SingleCell_Standalone_D2D.upf.dnPpp.queue incomingPackets:count 0
scalar SingleCell_Standalone_D2D.upf.dnPpp.queue incomingPacketLengths:sum 0
scalar SingleCell_Standalone_D2D.upf.dnPpp.queue droppedPacketsQueueOverflow:count 0
scalar SingleCell_Standalone_D2D.upf.dnPpp.queue droppedPacketLengthsQueueOverflow:sum 0
scalar SingleCell_Standalone_D2D.upf.dnPpp.ppp transmissionState:timeavg 0
scalar SingleCell_Standalone_D2D.upf.dnPpp.ppp rxPkOk:count 0
scalar SingleCell_Standalone_D2D.upf.dnPpp.ppp rxPkOk:sum(packetBytes) 0
scalar SingleCell_Standalone_D2D.upf.dnPpp.ppp txPk:count 0
scalar SingleCell_Standalone_D2D.upf.dnPpp.ppp txPk:sum(packetBytes) 0
scalar SingleCell_Standalone_D2D.upf.dnPpp.ppp rcvdPkFromHl:count 0
scalar SingleCell_Standalone_D2D.upf.dnPpp.ppp rcvdPkFromHl:sum(packetBytes) 0
scalar SingleCell_Standalone_D2D.upf.dnPpp.ppp passedUpPk:count 0
scalar SingleCell_Standalone_D2D.upf.dnPpp.ppp passedUpPk:sum(packetBytes) 0
scalar SingleCell_Standalone_D2D.upf.dnPpp.ppp packetDropIncorrectlyReceived:count 0
scalar SingleCell_Standalone_D2D.upf.dnPpp.ppp packetDropIncorrectlyReceived:sum(packetBytes) 0
scalar SingleCell_Standalone_D2D.upf.dnPpp.ppp packetDropInterfaceDown:count 0
scalar SingleCell_Standalone_D2D.upf.dnPpp.ppp packetDropInterfaceDown:sum(packetBytes) 0
scalar SingleCell_Standalone_D2D.upf.dnPpp packetDropInterfaceDown:count 0
scalar SingleCell_Standalone_D2D.upf.dnPpp packetDropInterfaceDown:sum(packetBytes) 0
scalar SingleCell_Standalone_D2D.upf.dnPpp packetDropNoCarrier:count 0
scalar SingleCell_Standalone_D2D.upf.dnPpp packetDropNoCarrier:sum(packetBytes) 0
scalar SingleCell_Standalone_D2D.iUpf.lo[0].lo rcvdPkFromHl:count 0
scalar SingleCell_Standalone_D2D.iUpf.lo[0].lo rcvdPkFromHl:sum(packetBytes) 0
scalar SingleCell_Standalone_D2D.iUpf.lo[0].lo passedUpPk:count 0
scalar SingleCell_Standalone_D2D.iUpf.lo[0].lo passedUpPk:sum(packetBytes) 0
scalar SingleCell_Standalone_D2D.iUpf.lo[0] packetDropInterfaceDown:count 0
scalar SingleCell_Standalone_D2D.iUpf.lo[0] packetDropInterfaceDown:sum(packetBytes) 0
scalar SingleCell_Standalone_D2D.iUpf.lo[0] packetDropNoCarrier:count 0
scalar SingleCell_Standalone_D2D.iUpf.lo[0] packetDropNoCarrier:sum(packetBytes) 0
scalar SingleCell_Standalone_D2D.iUpf.ppp[0].queue queueLength:last 0
scalar SingleCell_Standalone_D2D.iUpf.ppp[0].queue queueLength:max 0
scalar SingleCell_Standalone_D2D.iUpf.ppp[0].queue queueLength:timeavg 0
scalar SingleCell_Standalone_D2D.iUpf.ppp[0].queue queueBitLength:last 0
scalar SingleCell_Standalone_D2D.iUpf.ppp[0].queue queueBitLength:max 0
scalar SingleCell_Standalone_D2D.iUpf.ppp[0].queue queueBitLength:timeavg 0
scalar SingleCell_Standalone_D2D.iUpf.ppp[0].queue outgoingPackets:count 0
scalar SingleCell_Standalone_D2D.iUpf.ppp[0].queue outgoingPacketLengths:sum 0
scalar SingleCell_Standalone_D2D.iUpf.ppp[0].queue incomingPackets:count 0
scalar SingleCell_Standalone_D2D.iUpf.ppp[0].queue incomingPacketLengths:sum 0
scalar SingleCell_Standalone_D2D.iUpf.ppp[0].queue droppedPacketsQueueOverflow:count 0
scalar SingleCell_Standalone_D2D.iUpf.ppp[0].queue droppedPacketLengthsQueueOverflow:sum 0
scalar SingleCell_Standalone_D2D.iUpf.ppp[0].ppp transmissionState:timeavg 0
scalar SingleCell_Standalone_D2D.iUpf.ppp[0].ppp rxPkOk:count 0
scalar SingleCell_Standalone_D2D.iUpf.ppp[0].ppp rxPkOk:sum(packetBytes) 0
scalar SingleCell_Standalone_D2D.iUpf.ppp[0].ppp txPk:count 0
scalar SingleCell_Standalone_D2D.iUpf.ppp[0].ppp txPk:sum(packetBytes) 0
scalar SingleCell_Standalone_D2D.iUpf.ppp[0].ppp rcvdPkFromHl:count 0
scalar SingleCell_Standalone_D2D.iUpf.ppp[0].ppp rcvdPkFromHl:sum(packetBytes) 0
scalar SingleCell_Standalone_D2D.iUpf.ppp[0].ppp passedUpPk:count 0
scalar SingleCell_Standalone_D2D.iUpf.ppp[0].ppp passedUpPk:sum(packetBytes) 0
scalar SingleCell_Standalone_D2D.iUpf.ppp[0].ppp packetDropIncorrectlyReceived:count 0
scalar SingleCell_Standalone_D2D.iUpf.ppp[0].ppp packetDropIncorrectlyReceived:sum(packetBytes) 0
scalar SingleCell_Standalone_D2D.iUpf.ppp[0].ppp packetDropInterfaceDown:count 0
scalar SingleCell_Standalone_D2D.iUpf.ppp[0].ppp packetDropInterfaceDown:sum(packetBytes) 0
scalar SingleCell_Standalone_D2D.iUpf.ppp[0] packetDropInterfaceDown:count 0
scalar SingleCell_Standalone_D2D.iUpf.ppp[0] packetDropInterfaceDown:sum(packetBytes) 0
scalar SingleCell_Standalone_D2D.iUpf.ppp[0] packetDropNoCarrier:count 0
scalar SingleCell_Standalone_D2D.iUpf.ppp[0] packetDropNoCarrier:sum(packetBytes) 0
scalar SingleCell_Standalone_D2D.iUpf.ppp[1].queue queueLength:last 0
scalar SingleCell_Standalone_D2D.iUpf.ppp[1].queue queueLength:max 0
scalar SingleCell_Standalone_D2D.iUpf.ppp[1].queue queueLength:timeavg 0
scalar SingleCell_Standalone_D2D.iUpf.ppp[1].queue queueBitLength:last 0
scalar SingleCell_Standalone_D2D.iUpf.ppp[1].queue queueBitLength:max 0
scalar SingleCell_Standalone_D2D.iUpf.ppp[1].queue queueBitLength:timeavg 0
scalar SingleCell_Standalone_D2D.iUpf.ppp[1].queue outgoingPackets:count 0
scalar SingleCell_Standalone_D2D.iUpf.ppp[1].queue outgoingPacketLengths:sum 0
scalar SingleCell_Standalone_D2D.iUpf.ppp[1].queue incomingPackets:count 0
scalar SingleCell_Standalone_D2D.iUpf.ppp[1].queue incomingPacketLengths:sum 0
scalar SingleCell_Standalone_D2D.iUpf.ppp[1].queue droppedPacketsQueueOverflow:count 0
scalar SingleCell_Standalone_D2D.iUpf.ppp[1].queue droppedPacketLengthsQueueOverflow:sum 0
scalar SingleCell_Standalone_D2D.iUpf.ppp[1].ppp transmissionState:timeavg 0
scalar SingleCell_Standalone_D2D.iUpf.ppp[1].ppp rxPkOk:count 0
scalar SingleCell_Standalone_D2D.iUpf.ppp[1].ppp rxPkOk:sum(packetBytes) 0
scalar SingleCell_Standalone_D2D.iUpf.ppp[1].ppp txPk:count 0
scalar SingleCell_Standalone_D2D.iUpf.ppp[1].ppp txPk:sum(packetBytes) 0
scalar SingleCell_Standalone_D2D.iUpf.ppp[1].ppp rcvdPkFromHl:count 0
scalar SingleCell_Standalone_D2D.iUpf.ppp[1].ppp rcvdPkFromHl:sum(packetBytes) 0
scalar SingleCell_Standalone_D2D.iUpf.ppp[1].ppp passedUpPk:count 0
scalar SingleCell_Standalone_D2D.iUpf.ppp[1].ppp passedUpPk:sum(packetBytes) 0
scalar SingleCell_Standalone_D2D.iUpf.ppp[1].ppp packetDropIncorrectlyReceived:count 0
scalar SingleCell_Standalone_D2D.iUpf.ppp[1].ppp packetDropIncorrectlyReceived:sum(packetBytes) 0
scalar SingleCell_Standalone_D2D.iUpf.ppp[1].ppp packetDropInterfaceDown:count 0
scalar SingleCell_Standalone_D2D.iUpf.ppp[1].ppp packetDropInterfaceDown:sum(packetBytes) 0
scalar SingleCell_Standalone_D2D.iUpf.ppp[1] packetDropInterfaceDown:count 0
scalar SingleCell_Standalone_D2D.iUpf.ppp[1] packetDropInterfaceDown:sum(packetBytes) 0
scalar SingleCell_Standalone_D2D.iUpf.ppp[1] packetDropNoCarrier:count 0
scalar SingleCell_Standalone_D2D.iUpf.ppp[1] packetDropNoCarrier:sum(packetBytes) 0
scalar SingleCell_Standalone_D2D.iUpf.ipv4.ip packetDropAddressResolutionFailed:count 0
scalar SingleCell_Standalone_D2D.iUpf.ipv4.ip packetDropAddressResolutionFailed:sum(packetBytes) 0
scalar SingleCell_Standalone_D2D.iUpf.ipv4.ip packetDropHopLimitReached:count 0
scalar SingleCell_Standalone_D2D.iUpf.ipv4.ip packetDropHopLimitReached:sum(packetBytes) 0
scalar SingleCell_Standalone_D2D.iUpf.ipv4.ip packetDropForwardingDisabled:count 0
scalar SingleCell_Standalone_D2D.iUpf.ipv4.ip packetDropForwardingDisabled:sum(packetBytes) 0
scalar SingleCell_Standalone_D2D.iUpf.ipv4.ip packetDropNoInterfaceFound:count 0
scalar SingleCell_Standalone_D2D.iUpf.ipv4.ip packetDropNoInterfaceFound:sum(packetBytes) 0
scalar SingleCell_Standalone_D2D.iUpf.ipv4.ip packetDropNoRouteFound:count 0
scalar SingleCell_Standalone_D2D.iUpf.ipv4.ip packetDropNoRouteFound:sum(packetBytes) 0
scalar SingleCell_Standalone_D2D.iUpf.ipv4.ip packetDropUndefined:count 0
scalar SingleCell_Standalone_D2D.iUpf.ipv4.ip packetDropUndefined:sum(packetBytes) 0
scalar SingleCell_Standalone_D2D.iUpf.ipv4.arp arpResolutionFailed:count 0
scalar SingleCell_Standalone_D2D.iUpf.ipv4.arp arpResolutionCompleted:count 0
scalar SingleCell_Standalone_D2D.iUpf.ipv4.arp arpResolutionInitiated:count 0
scalar SingleCell_Standalone_D2D.iUpf.ipv4.arp arpReplySent:count 0
scalar SingleCell_Standalone_D2D.iUpf.ipv4.arp arpReplySent:sum(packetBytes) 0
scalar SingleCell_Standalone_D2D.iUpf.ipv4.arp arpRequestSent:count 0
scalar SingleCell_Standalone_D2D.iUpf.ipv4.arp arpRequestSent:sum(packetBytes) 0
scalar SingleCell_Standalone_D2D.iUpf.udp packetReceived:count 0
scalar SingleCell_Standalone_D2D.iUpf.udp packetReceived:sum(packetBytes) 0
scalar SingleCell_Standalone_D2D.iUpf.udp packetSent:count 0
scalar SingleCell_Standalone_D2D.iUpf.udp packetSent:sum(packetBytes) 0
scalar SingleCell_Standalone_D2D.iUpf.udp passedUpPk:count 0
scalar SingleCell_Standalone_D2D.iUpf.udp droppedPkWrongPort:count 0
scalar SingleCell_Standalone_D2D.iUpf.udp droppedPkBadChecksum:count 0
scalar SingleCell_Standalone_D2D.iUpf.dnPpp.queue queueLength:last 0
scalar SingleCell_Standalone_D2D.iUpf.dnPpp.queue queueLength:max 0
scalar SingleCell_Standalone_D2D.iUpf.dnPpp.queue queueLength:timeavg 0
scalar SingleCell_Standalone_D2D.iUpf.dnPpp.queue queueBitLength:last 0
scalar SingleCell_Standalone_D2D.iUpf.dnPpp.queue queueBitLength:max 0
scalar SingleCell_Standalone_D2D.iUpf.dnPpp.queue queueBitLength:timeavg 0
scalar SingleCell_Standalone_D2D.iUpf.dnPpp.queue outgoingPackets:count 0
scalar SingleCell_Standalone_D2D.iUpf.dnPpp.queue outgoingPacketLengths:sum 0
scalar SingleCell_Standalone_D2D.iUpf.dnPpp.queue incomingPackets:count 0
scalar SingleCell_Standalone_D2D.iUpf.dnPpp.queue incomingPacketLengths:sum 0
scalar SingleCell_Standalone_D2D.iUpf.dnPpp.queue droppedPacketsQueueOverflow:count 0
scalar SingleCell_Standalone_D2D.iUpf.dnPpp.queue droppedPacketLengthsQueueOverflow:sum 0
scalar SingleCell_Standalone_D2D.iUpf.dnPpp.ppp transmissionState:timeavg 0
scalar SingleCell_Standalone_D2D.iUpf.dnPpp.ppp rxPkOk:count 0
scalar SingleCell_Standalone_D2D.iUpf.dnPpp.ppp rxPkOk:sum(packetBytes) 0
scalar SingleCell_Standalone_D2D.iUpf.dnPpp.ppp txPk:count 0
scalar SingleCell_Standalone_D2D.iUpf.dnPpp.ppp txPk:sum(packetBytes) 0
scalar SingleCell_Standalone_D2D.iUpf.dnPpp.ppp rcvdPkFromHl:count 0
scalar SingleCell_Standalone_D2D.iUpf.dnPpp.ppp rcvdPkFromHl:sum(packetBytes) 0
scalar SingleCell_Standalone_D2D.iUpf.dnPpp.ppp passedUpPk:count 0
scalar SingleCell_Standalone_D2D.iUpf.dnPpp.ppp passedUpPk:sum(packetBytes) 0
scalar SingleCell_Standalone_D2D.iUpf.dnPpp.ppp packetDropIncorrectlyReceived:count 0
scalar SingleCell_Standalone_D2D.iUpf.dnPpp.ppp packetDropIncorrectlyReceived:sum(packetBytes) 0
scalar SingleCell_Standalone_D2D.iUpf.dnPpp.ppp packetDropInterfaceDown:count 0
scalar SingleCell_Standalone_D2D.iUpf.dnPpp.ppp packetDropInterfaceDown:sum(packetBytes) 0
scalar SingleCell_Standalone_D2D.iUpf.dnPpp packetDropInterfaceDown:count 0
scalar SingleCell_Standalone_D2D.iUpf.dnPpp packetDropInterfaceDown:sum(packetBytes) 0
scalar SingleCell_Standalone_D2D.iUpf.dnPpp packetDropNoCarrier:count 0
scalar SingleCell_Standalone_D2D.iUpf.dnPpp packetDropNoCarrier:sum(packetBytes) 0
scalar SingleCell_Standalone_D2D.gnb.cellularNic.rlcMux rlcCellThroughputD2D:simu5g_rateavg -nan
scalar SingleCell_Standalone_D2D.gnb.cellularNic.rlcMux rlcPduThroughputD2D:simu5g_rateavg -nan
scalar SingleCell_Standalone_D2D.gnb.cellularNic.rlcMux rlcPduDelayD2D:mean -nan
scalar SingleCell_Standalone_D2D.gnb.cellularNic.rlcMux rlcThroughputD2D:simu5g_rateavg -nan
scalar SingleCell_Standalone_D2D.gnb.cellularNic.rlcMux rlcDelayD2D:mean -nan
scalar SingleCell_Standalone_D2D.gnb.cellularNic.rlcMux rlcCellThroughputUl:simu5g_rateavg -nan
scalar SingleCell_Standalone_D2D.gnb.cellularNic.rlcMux rlcCellThroughputDl:simu5g_rateavg 1300691.1337178091
scalar SingleCell_Standalone_D2D.gnb.cellularNic.rlcMux rlcPduThroughputUl:simu5g_rateavg -nan
scalar SingleCell_Standalone_D2D.gnb.cellularNic.rlcMux rlcPduThroughputDl:simu5g_rateavg -nan
scalar SingleCell_Standalone_D2D.gnb.cellularNic.rlcMux rlcPduDelayUl:mean -nan
scalar SingleCell_Standalone_D2D.gnb.cellularNic.rlcMux rlcPduDelayDl:mean -nan
scalar SingleCell_Standalone_D2D.gnb.cellularNic.rlcMux rlcThroughputUl:simu5g_rateavg -nan
scalar SingleCell_Standalone_D2D.gnb.cellularNic.rlcMux rlcThroughputDl:simu5g_rateavg -nan
scalar SingleCell_Standalone_D2D.gnb.cellularNic.rlcMux rlcDelayUl:mean -nan
scalar SingleCell_Standalone_D2D.gnb.cellularNic.rlcMux rlcDelayDl:mean -nan
scalar SingleCell_Standalone_D2D.gnb.cellularNic.rlcMux sentPacketToLowerLayer:count 0
scalar SingleCell_Standalone_D2D.gnb.cellularNic.rlcMux sentPacketToLowerLayer:sum(packetBytes) 0
scalar SingleCell_Standalone_D2D.gnb.cellularNic.rlcMux receivedPacketFromLowerLayer:count 0
scalar SingleCell_Standalone_D2D.gnb.cellularNic.rlcMux receivedPacketFromLowerLayer:sum(packetBytes) 0
scalar SingleCell_Standalone_D2D.gnb.cellularNic.mac avgServedBlocksUl:mean 10.06565
scalar SingleCell_Standalone_D2D.gnb.cellularNic.mac avgServedBlocksDl:mean 0
scalar SingleCell_Standalone_D2D.gnb.cellularNic.mac macCellPacketLossD2D:mean 0
scalar SingleCell_Standalone_D2D.gnb.cellularNic.mac macCellThroughputD2D:simu5g_rateavg 1303825.0068859085
scalar SingleCell_Standalone_D2D.gnb.cellularNic.mac harqTxAttemptsUl:mean -nan
scalar SingleCell_Standalone_D2D.gnb.cellularNic.mac harqTxAttemptsDl:mean -nan
scalar SingleCell_Standalone_D2D.gnb.cellularNic.mac harqErrorRate_4th_Ul:mean -nan
scalar SingleCell_Standalone_D2D.gnb.cellularNic.mac harqErrorRate_4th_Dl:mean -nan
scalar SingleCell_Standalone_D2D.gnb.cellularNic.mac harqErrorRate_3rd_Ul:mean -nan
scalar SingleCell_Standalone_D2D.gnb.cellularNic.mac harqErrorRate_3rd_Dl:mean -nan
scalar SingleCell_Standalone_D2D.gnb.cellularNic.mac harqErrorRate_2nd_Ul:mean -nan
scalar SingleCell_Standalone_D2D.gnb.cellularNic.mac harqErrorRate_2nd_Dl:mean -nan
scalar SingleCell_Standalone_D2D.gnb.cellularNic.mac harqErrorRate_1st_Ul:mean -nan
scalar SingleCell_Standalone_D2D.gnb.cellularNic.mac harqErrorRate_1st_Dl:mean -nan
scalar SingleCell_Standalone_D2D.gnb.cellularNic.mac harqErrorRateUl:mean -nan
scalar SingleCell_Standalone_D2D.gnb.cellularNic.mac harqErrorRateDl:mean -nan
scalar SingleCell_Standalone_D2D.gnb.cellularNic.mac macCellPacketLossUl:mean 0
scalar SingleCell_Standalone_D2D.gnb.cellularNic.mac macCellPacketLossDl:mean -nan
scalar SingleCell_Standalone_D2D.gnb.cellularNic.mac macPacketLossUl:mean -nan
scalar SingleCell_Standalone_D2D.gnb.cellularNic.mac macPacketLossDl:mean -nan
scalar SingleCell_Standalone_D2D.gnb.cellularNic.mac macThroughputUl:simu5g_rateavg -nan
scalar SingleCell_Standalone_D2D.gnb.cellularNic.mac macThroughputDl:simu5g_rateavg -nan
scalar SingleCell_Standalone_D2D.gnb.cellularNic.mac macDelayUl:mean -nan
scalar SingleCell_Standalone_D2D.gnb.cellularNic.mac macDelayDl:mean -nan
scalar SingleCell_Standalone_D2D.gnb.cellularNic.mac macCellThroughputUl:simu5g_rateavg 1303651.8311061808
scalar SingleCell_Standalone_D2D.gnb.cellularNic.mac macCellThroughputDl:simu5g_rateavg -nan
scalar SingleCell_Standalone_D2D.gnb.cellularNic.mac sentPacketToLowerLayer:count 29428
scalar SingleCell_Standalone_D2D.gnb.cellularNic.mac sentPacketToLowerLayer:sum(packetBytes) 29428
scalar SingleCell_Standalone_D2D.gnb.cellularNic.mac sentPacketToUpperLayer:count 0
scalar SingleCell_Standalone_D2D.gnb.cellularNic.mac sentPacketToUpperLayer:sum(packetBytes) 0
scalar SingleCell_Standalone_D2D.gnb.cellularNic.mac receivedPacketFromLowerLayer:count 56244
scalar SingleCell_Standalone_D2D.gnb.cellularNic.mac receivedPacketFromLowerLayer:sum(packetBytes) 62764
scalar SingleCell_Standalone_D2D.gnb.cellularNic.mac receivedPacketFromUpperLayer:count 0
scalar SingleCell_Standalone_D2D.gnb.cellularNic.mac receivedPacketFromUpperLayer:sum(packetBytes) 0
scalar SingleCell_Standalone_D2D.gnb.cellularNic.mac macBufferOverFlowD2D:mean -nan
scalar SingleCell_Standalone_D2D.gnb.cellularNic.mac macBufferOverFlowUl:mean -nan
scalar SingleCell_Standalone_D2D.gnb.cellularNic.mac macBufferOverFlowDl:mean -nan
scalar SingleCell_Standalone_D2D.gnb.cellularNic.channelModel[0] measuredSinrUl:mean -nan
scalar SingleCell_Standalone_D2D.gnb.cellularNic.channelModel[0] measuredSinrDl:mean -nan
scalar SingleCell_Standalone_D2D.gnb.cellularNic.channelModel[0] rcvdSinrD2D:mean -nan
scalar SingleCell_Standalone_D2D.gnb.cellularNic.channelModel[0] rcvdSinrUl:mean -nan
scalar SingleCell_Standalone_D2D.gnb.cellularNic.channelModel[0] rcvdSinrDl:mean -nan
scalar SingleCell_Standalone_D2D.gnb.cellularNic packetDropInterfaceDown:count 0
scalar SingleCell_Standalone_D2D.gnb.cellularNic packetDropInterfaceDown:sum(packetBytes) 0
scalar SingleCell_Standalone_D2D.gnb.cellularNic packetDropNoCarrier:count 0
scalar SingleCell_Standalone_D2D.gnb.cellularNic packetDropNoCarrier:sum(packetBytes) 0
scalar SingleCell_Standalone_D2D.gnb.pppIf.queue queueLength:last 0
scalar SingleCell_Standalone_D2D.gnb.pppIf.queue queueLength:max 0
scalar SingleCell_Standalone_D2D.gnb.pppIf.queue queueLength:timeavg 0
scalar SingleCell_Standalone_D2D.gnb.pppIf.queue queueBitLength:last 0
scalar SingleCell_Standalone_D2D.gnb.pppIf.queue queueBitLength:max 0
scalar SingleCell_Standalone_D2D.gnb.pppIf.queue queueBitLength:timeavg 0
scalar SingleCell_Standalone_D2D.gnb.pppIf.queue outgoingPackets:count 0
scalar SingleCell_Standalone_D2D.gnb.pppIf.queue outgoingPacketLengths:sum 0
scalar SingleCell_Standalone_D2D.gnb.pppIf.queue incomingPackets:count 0
scalar SingleCell_Standalone_D2D.gnb.pppIf.queue incomingPacketLengths:sum 0
scalar SingleCell_Standalone_D2D.gnb.pppIf.queue droppedPacketsQueueOverflow:count 0
scalar SingleCell_Standalone_D2D.gnb.pppIf.queue droppedPacketLengthsQueueOverflow:sum 0
scalar SingleCell_Standalone_D2D.gnb.pppIf.ppp transmissionState:timeavg 0
scalar SingleCell_Standalone_D2D.gnb.pppIf.ppp rxPkOk:count 0
scalar SingleCell_Standalone_D2D.gnb.pppIf.ppp rxPkOk:sum(packetBytes) 0
scalar SingleCell_Standalone_D2D.gnb.pppIf.ppp txPk:count 0
scalar SingleCell_Standalone_D2D.gnb.pppIf.ppp txPk:sum(packetBytes) 0
scalar SingleCell_Standalone_D2D.gnb.pppIf.ppp rcvdPkFromHl:count 0
scalar SingleCell_Standalone_D2D.gnb.pppIf.ppp rcvdPkFromHl:sum(packetBytes) 0
scalar SingleCell_Standalone_D2D.gnb.pppIf.ppp passedUpPk:count 0
scalar SingleCell_Standalone_D2D.gnb.pppIf.ppp passedUpPk:sum(packetBytes) 0
scalar SingleCell_Standalone_D2D.gnb.pppIf.ppp packetDropIncorrectlyReceived:count 0
scalar SingleCell_Standalone_D2D.gnb.pppIf.ppp packetDropIncorrectlyReceived:sum(packetBytes) 0
scalar SingleCell_Standalone_D2D.gnb.pppIf.ppp packetDropInterfaceDown:count 0
scalar SingleCell_Standalone_D2D.gnb.pppIf.ppp packetDropInterfaceDown:sum(packetBytes) 0
scalar SingleCell_Standalone_D2D.gnb.pppIf packetDropInterfaceDown:count 0
scalar SingleCell_Standalone_D2D.gnb.pppIf packetDropInterfaceDown:sum(packetBytes) 0
scalar SingleCell_Standalone_D2D.gnb.pppIf packetDropNoCarrier:count 0
scalar SingleCell_Standalone_D2D.gnb.pppIf packetDropNoCarrier:sum(packetBytes) 0
scalar SingleCell_Standalone_D2D.gnb.pppMEHostIf.queue queueLength:last 0
scalar SingleCell_Standalone_D2D.gnb.pppMEHostIf.queue queueLength:max 0
scalar SingleCell_Standalone_D2D.gnb.pppMEHostIf.queue queueLength:timeavg 0
scalar SingleCell_Standalone_D2D.gnb.pppMEHostIf.queue queueBitLength:last 0
scalar SingleCell_Standalone_D2D.gnb.pppMEHostIf.queue queueBitLength:max 0
scalar SingleCell_Standalone_D2D.gnb.pppMEHostIf.queue queueBitLength:timeavg 0
scalar SingleCell_Standalone_D2D.gnb.pppMEHostIf.queue outgoingPackets:count 0
scalar SingleCell_Standalone_D2D.gnb.pppMEHostIf.queue outgoingPacketLengths:sum 0
scalar SingleCell_Standalone_D2D.gnb.pppMEHostIf.queue incomingPackets:count 0
scalar SingleCell_Standalone_D2D.gnb.pppMEHostIf.queue incomingPacketLengths:sum 0
scalar SingleCell_Standalone_D2D.gnb.pppMEHostIf.queue droppedPacketsQueueOverflow:count 0
scalar SingleCell_Standalone_D2D.gnb.pppMEHostIf.queue droppedPacketLengthsQueueOverflow:sum 0
scalar SingleCell_Standalone_D2D.gnb.pppMEHostIf.ppp transmissionState:timeavg 0
scalar SingleCell_Standalone_D2D.gnb.pppMEHostIf.ppp rxPkOk:count 0
scalar SingleCell_Standalone_D2D.gnb.pppMEHostIf.ppp rxPkOk:sum(packetBytes) 0
scalar SingleCell_Standalone_D2D.gnb.pppMEHostIf.ppp txPk:count 0
scalar SingleCell_Standalone_D2D.gnb.pppMEHostIf.ppp txPk:sum(packetBytes) 0
scalar SingleCell_Standalone_D2D.gnb.pppMEHostIf.ppp rcvdPkFromHl:count 0
scalar SingleCell_Standalone_D2D.gnb.pppMEHostIf.ppp rcvdPkFromHl:sum(packetBytes) 0
scalar SingleCell_Standalone_D2D.gnb.pppMEHostIf.ppp passedUpPk:count 0
scalar SingleCell_Standalone_D2D.gnb.pppMEHostIf.ppp passedUpPk:sum(packetBytes) 0
scalar SingleCell_Standalone_D2D.gnb.pppMEHostIf.ppp packetDropIncorrectlyReceived:count 0
scalar SingleCell_Standalone_D2D.gnb.pppMEHostIf.ppp packetDropIncorrectlyReceived:sum(packetBytes) 0
scalar SingleCell_Standalone_D2D.gnb.pppMEHostIf.ppp packetDropInterfaceDown:count 0
scalar SingleCell_Standalone_D2D.gnb.pppMEHostIf.ppp packetDropInterfaceDown:sum(packetBytes) 0
scalar SingleCell_Standalone_D2D.gnb.pppMEHostIf packetDropInterfaceDown:count 0
scalar SingleCell_Standalone_D2D.gnb.pppMEHostIf packetDropInterfaceDown:sum(packetBytes) 0
scalar SingleCell_Standalone_D2D.gnb.pppMEHostIf packetDropNoCarrier:count 0
scalar SingleCell_Standalone_D2D.gnb.pppMEHostIf packetDropNoCarrier:sum(packetBytes) 0
scalar SingleCell_Standalone_D2D.gnb.ipv4.ip packetDropAddressResolutionFailed:count 0
scalar SingleCell_Standalone_D2D.gnb.ipv4.ip packetDropAddressResolutionFailed:sum(packetBytes) 0
scalar SingleCell_Standalone_D2D.gnb.ipv4.ip packetDropHopLimitReached:count 0
scalar SingleCell_Standalone_D2D.gnb.ipv4.ip packetDropHopLimitReached:sum(packetBytes) 0
scalar SingleCell_Standalone_D2D.gnb.ipv4.ip packetDropForwardingDisabled:count 0
scalar SingleCell_Standalone_D2D.gnb.ipv4.ip packetDropForwardingDisabled:sum(packetBytes) 0
scalar SingleCell_Standalone_D2D.gnb.ipv4.ip packetDropNoInterfaceFound:count 0
scalar SingleCell_Standalone_D2D.gnb.ipv4.ip packetDropNoInterfaceFound:sum(packetBytes) 0
scalar SingleCell_Standalone_D2D.gnb.ipv4.ip packetDropNoRouteFound:count 0
scalar SingleCell_Standalone_D2D.gnb.ipv4.ip packetDropNoRouteFound:sum(packetBytes) 0
scalar SingleCell_Standalone_D2D.gnb.ipv4.ip packetDropUndefined:count 0
scalar SingleCell_Standalone_D2D.gnb.ipv4.ip packetDropUndefined:sum(packetBytes) 0
scalar SingleCell_Standalone_D2D.gnb.ipv4.arp arpResolutionFailed:count 0
scalar SingleCell_Standalone_D2D.gnb.ipv4.arp arpResolutionCompleted:count 0
scalar SingleCell_Standalone_D2D.gnb.ipv4.arp arpResolutionInitiated:count 0
scalar SingleCell_Standalone_D2D.gnb.ipv4.arp arpReplySent:count 0
scalar SingleCell_Standalone_D2D.gnb.ipv4.arp arpReplySent:sum(packetBytes) 0
scalar SingleCell_Standalone_D2D.gnb.ipv4.arp arpRequestSent:count 0
scalar SingleCell_Standalone_D2D.gnb.ipv4.arp arpRequestSent:sum(packetBytes) 0
scalar SingleCell_Standalone_D2D.gnb.udp packetReceived:count 0
scalar SingleCell_Standalone_D2D.gnb.udp packetReceived:sum(packetBytes) 0
scalar SingleCell_Standalone_D2D.gnb.udp packetSent:count 0
scalar SingleCell_Standalone_D2D.gnb.udp packetSent:sum(packetBytes) 0
scalar SingleCell_Standalone_D2D.gnb.udp passedUpPk:count 0
scalar SingleCell_Standalone_D2D.gnb.udp droppedPkWrongPort:count 0
scalar SingleCell_Standalone_D2D.gnb.udp droppedPkBadChecksum:count 0
scalar SingleCell_Standalone_D2D.ueD2DTx[0].lo[0].lo rcvdPkFromHl:count 0
scalar SingleCell_Standalone_D2D.ueD2DTx[0].lo[0].lo rcvdPkFromHl:sum(packetBytes) 0
scalar SingleCell_Standalone_D2D.ueD2DTx[0].lo[0].lo passedUpPk:count 0
scalar SingleCell_Standalone_D2D.ueD2DTx[0].lo[0].lo passedUpPk:sum(packetBytes) 0
scalar SingleCell_Standalone_D2D.ueD2DTx[0].lo[0] packetDropInterfaceDown:count 0
scalar SingleCell_Standalone_D2D.ueD2DTx[0].lo[0] packetDropInterfaceDown:sum(packetBytes) 0
scalar SingleCell_Standalone_D2D.ueD2DTx[0].lo[0] packetDropNoCarrier:count 0
scalar SingleCell_Standalone_D2D.ueD2DTx[0].lo[0] packetDropNoCarrier:sum(packetBytes) 0
scalar SingleCell_Standalone_D2D.ueD2DTx[0].cellularNic.rlcMux rlcCellThroughputD2D:simu5g_rateavg -nan
scalar SingleCell_Standalone_D2D.ueD2DTx[0].cellularNic.rlcMux rlcPduThroughputD2D:simu5g_rateavg -nan
scalar SingleCell_Standalone_D2D.ueD2DTx[0].cellularNic.rlcMux rlcPduDelayD2D:mean -nan
scalar SingleCell_Standalone_D2D.ueD2DTx[0].cellularNic.rlcMux rlcThroughputD2D:simu5g_rateavg -nan
scalar SingleCell_Standalone_D2D.ueD2DTx[0].cellularNic.rlcMux rlcDelayD2D:mean -nan
scalar SingleCell_Standalone_D2D.ueD2DTx[0].cellularNic.rlcMux rlcCellThroughputUl:simu5g_rateavg -nan
scalar SingleCell_Standalone_D2D.ueD2DTx[0].cellularNic.rlcMux rlcCellThroughputDl:simu5g_rateavg -nan
scalar SingleCell_Standalone_D2D.ueD2DTx[0].cellularNic.rlcMux rlcPduThroughputUl:simu5g_rateavg -nan
scalar SingleCell_Standalone_D2D.ueD2DTx[0].cellularNic.rlcMux rlcPduThroughputDl:simu5g_rateavg -nan
scalar SingleCell_Standalone_D2D.ueD2DTx[0].cellularNic.rlcMux rlcPduDelayUl:mean -nan
scalar SingleCell_Standalone_D2D.ueD2DTx[0].cellularNic.rlcMux rlcPduDelayDl:mean -nan
scalar SingleCell_Standalone_D2D.ueD2DTx[0].cellularNic.rlcMux rlcThroughputUl:simu5g_rateavg -nan
scalar SingleCell_Standalone_D2D.ueD2DTx[0].cellularNic.rlcMux rlcThroughputDl:simu5g_rateavg -nan
scalar SingleCell_Standalone_D2D.ueD2DTx[0].cellularNic.rlcMux rlcDelayUl:mean -nan
scalar SingleCell_Standalone_D2D.ueD2DTx[0].cellularNic.rlcMux rlcDelayDl:mean -nan
scalar SingleCell_Standalone_D2D.ueD2DTx[0].cellularNic.rlcMux sentPacketToLowerLayer:count 0
scalar SingleCell_Standalone_D2D.ueD2DTx[0].cellularNic.rlcMux sentPacketToLowerLayer:sum(packetBytes) 0
scalar SingleCell_Standalone_D2D.ueD2DTx[0].cellularNic.rlcMux receivedPacketFromLowerLayer:count 0
scalar SingleCell_Standalone_D2D.ueD2DTx[0].cellularNic.rlcMux receivedPacketFromLowerLayer:sum(packetBytes) 0
scalar SingleCell_Standalone_D2D.ueD2DTx[0].cellularNic.mac harqErrorRate_4th_D2D:mean -nan
scalar SingleCell_Standalone_D2D.ueD2DTx[0].cellularNic.mac harqErrorRate_3rd_D2D:mean -nan
scalar SingleCell_Standalone_D2D.ueD2DTx[0].cellularNic.mac harqErrorRate_2nd_D2D:mean -nan
scalar SingleCell_Standalone_D2D.ueD2DTx[0].cellularNic.mac harqErrorRate_1st_D2D:mean -nan
scalar SingleCell_Standalone_D2D.ueD2DTx[0].cellularNic.mac harqErrorRateD2D:mean -nan
scalar SingleCell_Standalone_D2D.ueD2DTx[0].cellularNic.mac macPacketLossD2D:mean -nan
scalar SingleCell_Standalone_D2D.ueD2DTx[0].cellularNic.mac macDelayD2D:mean -nan
scalar SingleCell_Standalone_D2D.ueD2DTx[0].cellularNic.mac macThroughputD2D:simu5g_rateavg -nan
scalar SingleCell_Standalone_D2D.ueD2DTx[0].cellularNic.mac harqTxAttemptsUl:mean -nan
scalar SingleCell_Standalone_D2D.ueD2DTx[0].cellularNic.mac harqTxAttemptsDl:mean -nan
scalar SingleCell_Standalone_D2D.ueD2DTx[0].cellularNic.mac harqErrorRate_4th_Ul:mean -nan
scalar SingleCell_Standalone_D2D.ueD2DTx[0].cellularNic.mac harqErrorRate_4th_Dl:mean -nan
scalar SingleCell_Standalone_D2D.ueD2DTx[0].cellularNic.mac harqErrorRate_3rd_Ul:mean -nan
scalar SingleCell_Standalone_D2D.ueD2DTx[0].cellularNic.mac harqErrorRate_3rd_Dl:mean -nan
scalar SingleCell_Standalone_D2D.ueD2DTx[0].cellularNic.mac harqErrorRate_2nd_Ul:mean -nan
scalar SingleCell_Standalone_D2D.ueD2DTx[0].cellularNic.mac harqErrorRate_2nd_Dl:mean -nan
scalar SingleCell_Standalone_D2D.ueD2DTx[0].cellularNic.mac harqErrorRate_1st_Ul:mean -nan
scalar SingleCell_Standalone_D2D.ueD2DTx[0].cellularNic.mac harqErrorRate_1st_Dl:mean -nan
scalar SingleCell_Standalone_D2D.ueD2DTx[0].cellularNic.mac harqErrorRateUl:mean -nan
scalar SingleCell_Standalone_D2D.ueD2DTx[0].cellularNic.mac harqErrorRateDl:mean -nan
scalar SingleCell_Standalone_D2D.ueD2DTx[0].cellularNic.mac macCellPacketLossUl:mean -nan
scalar SingleCell_Standalone_D2D.ueD2DTx[0].cellularNic.mac macCellPacketLossDl:mean -nan
scalar SingleCell_Standalone_D2D.ueD2DTx[0].cellularNic.mac macPacketLossUl:mean -nan
scalar SingleCell_Standalone_D2D.ueD2DTx[0].cellularNic.mac macPacketLossDl:mean -nan
scalar SingleCell_Standalone_D2D.ueD2DTx[0].cellularNic.mac macThroughputUl:simu5g_rateavg -nan
scalar SingleCell_Standalone_D2D.ueD2DTx[0].cellularNic.mac macThroughputDl:simu5g_rateavg -nan
scalar SingleCell_Standalone_D2D.ueD2DTx[0].cellularNic.mac macDelayUl:mean -nan
scalar SingleCell_Standalone_D2D.ueD2DTx[0].cellularNic.mac macDelayDl:mean -nan
scalar SingleCell_Standalone_D2D.ueD2DTx[0].cellularNic.mac macCellThroughputUl:simu5g_rateavg -nan
scalar SingleCell_Standalone_D2D.ueD2DTx[0].cellularNic.mac macCellThroughputDl:simu5g_rateavg -nan
scalar SingleCell_Standalone_D2D.ueD2DTx[0].cellularNic.mac rcvdD2DModeSwitchNotification:count 0
scalar SingleCell_Standalone_D2D.ueD2DTx[0].cellularNic.mac sentPacketToLowerLayer:count 0
scalar SingleCell_Standalone_D2D.ueD2DTx[0].cellularNic.mac sentPacketToLowerLayer:sum(packetBytes) 0
scalar SingleCell_Standalone_D2D.ueD2DTx[0].cellularNic.mac sentPacketToUpperLayer:count 0
scalar SingleCell_Standalone_D2D.ueD2DTx[0].cellularNic.mac sentPacketToUpperLayer:sum(packetBytes) 0
scalar SingleCell_Standalone_D2D.ueD2DTx[0].cellularNic.mac receivedPacketFromLowerLayer:count 0
scalar SingleCell_Standalone_D2D.ueD2DTx[0].cellularNic.mac receivedPacketFromLowerLayer:sum(packetBytes) 0
scalar SingleCell_Standalone_D2D.ueD2DTx[0].cellularNic.mac receivedPacketFromUpperLayer:count 0
scalar SingleCell_Standalone_D2D.ueD2DTx[0].cellularNic.mac receivedPacketFromUpperLayer:sum(packetBytes) 0
scalar SingleCell_Standalone_D2D.ueD2DTx[0].cellularNic.mac macBufferOverFlowD2D:mean -nan
scalar SingleCell_Standalone_D2D.ueD2DTx[0].cellularNic.mac macBufferOverFlowUl:mean -nan
scalar SingleCell_Standalone_D2D.ueD2DTx[0].cellularNic.mac macBufferOverFlowDl:mean -nan
scalar SingleCell_Standalone_D2D.ueD2DTx[0].cellularNic.phy distance:mean -nan
scalar SingleCell_Standalone_D2D.ueD2DTx[0].cellularNic.phy averageCqiD2D:mean -nan
scalar SingleCell_Standalone_D2D.ueD2DTx[0].cellularNic.phy averageCqiUl:mean -nan
scalar SingleCell_Standalone_D2D.ueD2DTx[0].cellularNic.phy averageCqiUl:count 0
scalar SingleCell_Standalone_D2D.ueD2DTx[0].cellularNic.phy averageCqiDl:mean -nan
scalar SingleCell_Standalone_D2D.ueD2DTx[0].cellularNic.phy averageCqiDl:count 0
scalar SingleCell_Standalone_D2D.ueD2DTx[0].cellularNic.channelModel[0] measuredSinrUl:mean -nan
scalar SingleCell_Standalone_D2D.ueD2DTx[0].cellularNic.channelModel[0] measuredSinrDl:mean -nan
scalar SingleCell_Standalone_D2D.ueD2DTx[0].cellularNic.channelModel[0] rcvdSinrD2D:mean -nan
scalar SingleCell_Standalone_D2D.ueD2DTx[0].cellularNic.channelModel[0] rcvdSinrUl:mean -nan
scalar SingleCell_Standalone_D2D.ueD2DTx[0].cellularNic.channelModel[0] rcvdSinrDl:mean -nan
scalar SingleCell_Standalone_D2D.ueD2DTx[0].cellularNic.nrRlcMux rlcCellThroughputD2D:simu5g_rateavg -nan
scalar SingleCell_Standalone_D2D.ueD2DTx[0].cellularNic.nrRlcMux rlcPduThroughputD2D:simu5g_rateavg 0
scalar SingleCell_Standalone_D2D.ueD2DTx[0].cellularNic.nrRlcMux rlcPduDelayD2D:mean 0.005299363057324845
scalar SingleCell_Standalone_D2D.ueD2DTx[0].cellularNic.nrRlcMux rlcThroughputD2D:simu5g_rateavg 16488.536744674075
scalar SingleCell_Standalone_D2D.ueD2DTx[0].cellularNic.nrRlcMux rlcDelayD2D:mean 0.016179789425497096
scalar SingleCell_Standalone_D2D.ueD2DTx[0].cellularNic.nrRlcMux rlcCellThroughputUl:simu5g_rateavg -nan
scalar SingleCell_Standalone_D2D.ueD2DTx[0].cellularNic.nrRlcMux rlcCellThroughputDl:simu5g_rateavg -nan
scalar SingleCell_Standalone_D2D.ueD2DTx[0].cellularNic.nrRlcMux rlcPduThroughputUl:simu5g_rateavg -nan
scalar SingleCell_Standalone_D2D.ueD2DTx[0].cellularNic.nrRlcMux rlcPduThroughputDl:simu5g_rateavg -nan
scalar SingleCell_Standalone_D2D.ueD2DTx[0].cellularNic.nrRlcMux rlcPduDelayUl:mean -nan
scalar SingleCell_Standalone_D2D.ueD2DTx[0].cellularNic.nrRlcMux rlcPduDelayDl:mean -nan
scalar SingleCell_Standalone_D2D.ueD2DTx[0].cellularNic.nrRlcMux rlcThroughputUl:simu5g_rateavg -nan
scalar SingleCell_Standalone_D2D.ueD2DTx[0].cellularNic.nrRlcMux rlcThroughputDl:simu5g_rateavg -nan
scalar SingleCell_Standalone_D2D.ueD2DTx[0].cellularNic.nrRlcMux rlcDelayUl:mean -nan
scalar SingleCell_Standalone_D2D.ueD2DTx[0].cellularNic.nrRlcMux rlcDelayDl:mean -nan
scalar SingleCell_Standalone_D2D.ueD2DTx[0].cellularNic.nrRlcMux sentPacketToLowerLayer:count 10007
scalar SingleCell_Standalone_D2D.ueD2DTx[0].cellularNic.nrRlcMux sentPacketToLowerLayer:sum(packetBytes) 10101334
scalar SingleCell_Standalone_D2D.ueD2DTx[0].cellularNic.nrRlcMux receivedPacketFromLowerLayer:count 628
scalar SingleCell_Standalone_D2D.ueD2DTx[0].cellularNic.nrRlcMux receivedPacketFromLowerLayer:sum(packetBytes) 359518
scalar SingleCell_Standalone_D2D.ueD2DTx[0].cellularNic.nrMac harqErrorRate_4th_D2D:mean -nan
scalar SingleCell_Standalone_D2D.ueD2DTx[0].cellularNic.nrMac harqErrorRate_3rd_D2D:mean 0
scalar SingleCell_Standalone_D2D.ueD2DTx[0].cellularNic.nrMac harqErrorRate_2nd_D2D:mean 0.0099009900990099011
scalar SingleCell_Standalone_D2D.ueD2DTx[0].cellularNic.nrMac harqErrorRate_1st_D2D:mean 0.160828025477707
scalar SingleCell_Standalone_D2D.ueD2DTx[0].cellularNic.nrMac harqErrorRateD2D:mean 0.13972602739726028
scalar SingleCell_Standalone_D2D.ueD2DTx[0].cellularNic.nrMac macPacketLossD2D:mean 0
scalar SingleCell_Standalone_D2D.ueD2DTx[0].cellularNic.nrMac macDelayD2D:mean 0.005299363057324845
scalar SingleCell_Standalone_D2D.ueD2DTx[0].cellularNic.nrMac macThroughputD2D:simu5g_rateavg 16712.971409625789
scalar SingleCell_Standalone_D2D.ueD2DTx[0].cellularNic.nrMac harqTxAttemptsUl:mean 1
scalar SingleCell_Standalone_D2D.ueD2DTx[0].cellularNic.nrMac harqTxAttemptsDl:mean -nan
scalar SingleCell_Standalone_D2D.ueD2DTx[0].cellularNic.nrMac harqErrorRate_4th_Ul:mean -nan
scalar SingleCell_Standalone_D2D.ueD2DTx[0].cellularNic.nrMac harqErrorRate_4th_Dl:mean -nan
scalar SingleCell_Standalone_D2D.ueD2DTx[0].cellularNic.nrMac harqErrorRate_3rd_Ul:mean -nan
scalar SingleCell_Standalone_D2D.ueD2DTx[0].cellularNic.nrMac harqErrorRate_3rd_Dl:mean -nan
scalar SingleCell_Standalone_D2D.ueD2DTx[0].cellularNic.nrMac harqErrorRate_2nd_Ul:mean -nan
scalar SingleCell_Standalone_D2D.ueD2DTx[0].cellularNic.nrMac harqErrorRate_2nd_Dl:mean -nan
scalar SingleCell_Standalone_D2D.ueD2DTx[0].cellularNic.nrMac harqErrorRate_1st_Ul:mean 0
scalar SingleCell_Standalone_D2D.ueD2DTx[0].cellularNic.nrMac harqErrorRate_1st_Dl:mean -nan
scalar SingleCell_Standalone_D2D.ueD2DTx[0].cellularNic.nrMac harqErrorRateUl:mean 0
scalar SingleCell_Standalone_D2D.ueD2DTx[0].cellularNic.nrMac harqErrorRateDl:mean -nan
scalar SingleCell_Standalone_D2D.ueD2DTx[0].cellularNic.nrMac macCellPacketLossUl:mean -nan
scalar SingleCell_Standalone_D2D.ueD2DTx[0].cellularNic.nrMac macCellPacketLossDl:mean -nan
scalar SingleCell_Standalone_D2D.ueD2DTx[0].cellularNic.nrMac macPacketLossUl:mean 0
scalar SingleCell_Standalone_D2D.ueD2DTx[0].cellularNic.nrMac macPacketLossDl:mean -nan
scalar SingleCell_Standalone_D2D.ueD2DTx[0].cellularNic.nrMac macThroughputUl:simu5g_rateavg 60.468101465330285
scalar SingleCell_Standalone_D2D.ueD2DTx[0].cellularNic.nrMac macThroughputDl:simu5g_rateavg -nan
scalar SingleCell_Standalone_D2D.ueD2DTx[0].cellularNic.nrMac macDelayUl:mean 0.0040000000000000027
scalar SingleCell_Standalone_D2D.ueD2DTx[0].cellularNic.nrMac macDelayDl:mean -nan
scalar SingleCell_Standalone_D2D.ueD2DTx[0].cellularNic.nrMac macCellThroughputUl:simu5g_rateavg -nan
scalar SingleCell_Standalone_D2D.ueD2DTx[0].cellularNic.nrMac macCellThroughputDl:simu5g_rateavg -nan
scalar SingleCell_Standalone_D2D.ueD2DTx[0].cellularNic.nrMac rcvdD2DModeSwitchNotification:count 0
scalar SingleCell_Standalone_D2D.ueD2DTx[0].cellularNic.nrMac sentPacketToLowerLayer:count 3975
scalar SingleCell_Standalone_D2D.ueD2DTx[0].cellularNic.nrMac sentPacketToLowerLayer:sum(packetBytes) 5057780
scalar SingleCell_Standalone_D2D.ueD2DTx[0].cellularNic.nrMac sentPacketToUpperLayer:count 1882
scalar SingleCell_Standalone_D2D.ueD2DTx[0].cellularNic.nrMac sentPacketToUpperLayer:sum(packetBytes) 360772
scalar SingleCell_Standalone_D2D.ueD2DTx[0].cellularNic.nrMac receivedPacketFromLowerLayer:count 5129
scalar SingleCell_Standalone_D2D.ueD2DTx[0].cellularNic.nrMac receivedPacketFromLowerLayer:sum(packetBytes) 424129
scalar SingleCell_Standalone_D2D.ueD2DTx[0].cellularNic.nrMac receivedPacketFromUpperLayer:count 10007
scalar SingleCell_Standalone_D2D.ueD2DTx[0].cellularNic.nrMac receivedPacketFromUpperLayer:sum(packetBytes) 10101334
scalar SingleCell_Standalone_D2D.ueD2DTx[0].cellularNic.nrMac macBufferOverFlowD2D:mean -nan
scalar SingleCell_Standalone_D2D.ueD2DTx[0].cellularNic.nrMac macBufferOverFlowUl:mean -nan
scalar SingleCell_Standalone_D2D.ueD2DTx[0].cellularNic.nrMac macBufferOverFlowDl:mean -nan
scalar SingleCell_Standalone_D2D.ueD2DTx[0].cellularNic.nrPhy distance:mean -nan
scalar SingleCell_Standalone_D2D.ueD2DTx[0].cellularNic.nrPhy averageCqiD2D:mean 15
scalar SingleCell_Standalone_D2D.ueD2DTx[0].cellularNic.nrPhy averageCqiUl:mean 15
scalar SingleCell_Standalone_D2D.ueD2DTx[0].cellularNic.nrPhy averageCqiUl:count 630
scalar SingleCell_Standalone_D2D.ueD2DTx[0].cellularNic.nrPhy averageCqiDl:mean -nan
scalar SingleCell_Standalone_D2D.ueD2DTx[0].cellularNic.nrPhy averageCqiDl:count 0
scalar SingleCell_Standalone_D2D.ueD2DTx[0].cellularNic.nrChannelModel[0] measuredSinrUl:mean 52.398638083571058
scalar SingleCell_Standalone_D2D.ueD2DTx[0].cellularNic.nrChannelModel[0] measuredSinrDl:mean 74.614871631325514
scalar SingleCell_Standalone_D2D.ueD2DTx[0].cellularNic.nrChannelModel[0] rcvdSinrD2D:mean -nan
scalar SingleCell_Standalone_D2D.ueD2DTx[0].cellularNic.nrChannelModel[0] rcvdSinrUl:mean 63.851040353402865
scalar SingleCell_Standalone_D2D.ueD2DTx[0].cellularNic.nrChannelModel[0] rcvdSinrDl:mean -nan
scalar SingleCell_Standalone_D2D.ueD2DTx[0].cellularNic packetDropInterfaceDown:count 0
scalar SingleCell_Standalone_D2D.ueD2DTx[0].cellularNic packetDropInterfaceDown:sum(packetBytes) 0
scalar SingleCell_Standalone_D2D.ueD2DTx[0].cellularNic packetDropNoCarrier:count 0
scalar SingleCell_Standalone_D2D.ueD2DTx[0].cellularNic packetDropNoCarrier:sum(packetBytes) 0
scalar SingleCell_Standalone_D2D.ueD2DTx[0].encap pauseSent:count 0
scalar SingleCell_Standalone_D2D.ueD2DTx[0].encap pauseSent:sum 0
scalar SingleCell_Standalone_D2D.ueD2DTx[0].encap decapPk:count 0
scalar SingleCell_Standalone_D2D.ueD2DTx[0].encap decapPk:sum(packetBytes) 0
scalar SingleCell_Standalone_D2D.ueD2DTx[0].encap encapPk:count 0
scalar SingleCell_Standalone_D2D.ueD2DTx[0].encap encapPk:sum(packetBytes) 0
scalar SingleCell_Standalone_D2D.ueD2DTx[0].ipv4.ip packetDropAddressResolutionFailed:count 0
scalar SingleCell_Standalone_D2D.ueD2DTx[0].ipv4.ip packetDropAddressResolutionFailed:sum(packetBytes) 0
scalar SingleCell_Standalone_D2D.ueD2DTx[0].ipv4.ip packetDropHopLimitReached:count 0
scalar SingleCell_Standalone_D2D.ueD2DTx[0].ipv4.ip packetDropHopLimitReached:sum(packetBytes) 0
scalar SingleCell_Standalone_D2D.ueD2DTx[0].ipv4.ip packetDropForwardingDisabled:count 0
scalar SingleCell_Standalone_D2D.ueD2DTx[0].ipv4.ip packetDropForwardingDisabled:sum(packetBytes) 0
scalar SingleCell_Standalone_D2D.ueD2DTx[0].ipv4.ip packetDropNoInterfaceFound:count 0
scalar SingleCell_Standalone_D2D.ueD2DTx[0].ipv4.ip packetDropNoInterfaceFound:sum(packetBytes) 0
scalar SingleCell_Standalone_D2D.ueD2DTx[0].ipv4.ip packetDropNoRouteFound:count 0
scalar SingleCell_Standalone_D2D.ueD2DTx[0].ipv4.ip packetDropNoRouteFound:sum(packetBytes) 0
scalar SingleCell_Standalone_D2D.ueD2DTx[0].ipv4.ip packetDropUndefined:count 0
scalar SingleCell_Standalone_D2D.ueD2DTx[0].ipv4.ip packetDropUndefined:sum(packetBytes) 0
scalar SingleCell_Standalone_D2D.ueD2DTx[0].ipv4.arp arpResolutionFailed:count 0
scalar SingleCell_Standalone_D2D.ueD2DTx[0].ipv4.arp arpResolutionCompleted:count 0
scalar SingleCell_Standalone_D2D.ueD2DTx[0].ipv4.arp arpResolutionInitiated:count 0
scalar SingleCell_Standalone_D2D.ueD2DTx[0].ipv4.arp arpReplySent:count 0
scalar SingleCell_Standalone_D2D.ueD2DTx[0].ipv4.arp arpReplySent:sum(packetBytes) 0
scalar SingleCell_Standalone_D2D.ueD2DTx[0].ipv4.arp arpRequestSent:count 0
scalar SingleCell_Standalone_D2D.ueD2DTx[0].ipv4.arp arpRequestSent:sum(packetBytes) 0
scalar SingleCell_Standalone_D2D.ueD2DTx[0].udp packetReceived:count 0
scalar SingleCell_Standalone_D2D.ueD2DTx[0].udp packetReceived:sum(packetBytes) 0
scalar SingleCell_Standalone_D2D.ueD2DTx[0].udp packetSent:count 0
scalar SingleCell_Standalone_D2D.ueD2DTx[0].udp packetSent:sum(packetBytes) 0
scalar SingleCell_Standalone_D2D.ueD2DTx[0].udp passedUpPk:count 0
scalar SingleCell_Standalone_D2D.ueD2DTx[0].udp droppedPkWrongPort:count 0
scalar SingleCell_Standalone_D2D.ueD2DTx[0].udp droppedPkBadChecksum:count 0
scalar SingleCell_Standalone_D2D.ueD2DTx[0].app[0] bytesRcvd 0
scalar SingleCell_Standalone_D2D.ueD2DTx[0].app[0] bytesSent 1073741824
scalar SingleCell_Standalone_D2D.ueD2DTx[0].app[0] packetReceived:count 0
scalar SingleCell_Standalone_D2D.ueD2DTx[0].app[0] packetReceived:sum(packetBytes) 0
scalar SingleCell_Standalone_D2D.ueD2DTx[0].app[0] packetSent:count 1
scalar SingleCell_Standalone_D2D.ueD2DTx[0].app[0] packetSent:sum(packetBytes) 1073741824
scalar SingleCell_Standalone_D2D.ueD2DTx[1].lo[0].lo rcvdPkFromHl:count 0
scalar SingleCell_Standalone_D2D.ueD2DTx[1].lo[0].lo rcvdPkFromHl:sum(packetBytes) 0
scalar SingleCell_Standalone_D2D.ueD2DTx[1].lo[0].lo passedUpPk:count 0
scalar SingleCell_Standalone_D2D.ueD2DTx[1].lo[0].lo passedUpPk:sum(packetBytes) 0
scalar SingleCell_Standalone_D2D.ueD2DTx[1].lo[0] packetDropInterfaceDown:count 0
scalar SingleCell_Standalone_D2D.ueD2DTx[1].lo[0] packetDropInterfaceDown:sum(packetBytes) 0
scalar SingleCell_Standalone_D2D.ueD2DTx[1].lo[0] packetDropNoCarrier:count 0
scalar SingleCell_Standalone_D2D.ueD2DTx[1].lo[0] packetDropNoCarrier:sum(packetBytes) 0
scalar SingleCell_Standalone_D2D.ueD2DTx[1].cellularNic.rlcMux rlcCellThroughputD2D:simu5g_rateavg -nan
scalar SingleCell_Standalone_D2D.ueD2DTx[1].cellularNic.rlcMux rlcPduThroughputD2D:simu5g_rateavg -nan
scalar SingleCell_Standalone_D2D.ueD2DTx[1].cellularNic.rlcMux rlcPduDelayD2D:mean -nan
scalar SingleCell_Standalone_D2D.ueD2DTx[1].cellularNic.rlcMux rlcThroughputD2D:simu5g_rateavg -nan
scalar SingleCell_Standalone_D2D.ueD2DTx[1].cellularNic.rlcMux rlcDelayD2D:mean -nan
scalar SingleCell_Standalone_D2D.ueD2DTx[1].cellularNic.rlcMux rlcCellThroughputUl:simu5g_rateavg -nan
scalar SingleCell_Standalone_D2D.ueD2DTx[1].cellularNic.rlcMux rlcCellThroughputDl:simu5g_rateavg -nan
scalar SingleCell_Standalone_D2D.ueD2DTx[1].cellularNic.rlcMux rlcPduThroughputUl:simu5g_rateavg -nan
scalar SingleCell_Standalone_D2D.ueD2DTx[1].cellularNic.rlcMux rlcPduThroughputDl:simu5g_rateavg -nan
scalar SingleCell_Standalone_D2D.ueD2DTx[1].cellularNic.rlcMux rlcPduDelayUl:mean -nan
scalar SingleCell_Standalone_D2D.ueD2DTx[1].cellularNic.rlcMux rlcPduDelayDl:mean -nan
scalar SingleCell_Standalone_D2D.ueD2DTx[1].cellularNic.rlcMux rlcThroughputUl:simu5g_rateavg -nan
scalar SingleCell_Standalone_D2D.ueD2DTx[1].cellularNic.rlcMux rlcThroughputDl:simu5g_rateavg -nan
scalar SingleCell_Standalone_D2D.ueD2DTx[1].cellularNic.rlcMux rlcDelayUl:mean -nan
scalar SingleCell_Standalone_D2D.ueD2DTx[1].cellularNic.rlcMux rlcDelayDl:mean -nan
scalar SingleCell_Standalone_D2D.ueD2DTx[1].cellularNic.rlcMux sentPacketToLowerLayer:count 0
scalar SingleCell_Standalone_D2D.ueD2DTx[1].cellularNic.rlcMux sentPacketToLowerLayer:sum(packetBytes) 0
scalar SingleCell_Standalone_D2D.ueD2DTx[1].cellularNic.rlcMux receivedPacketFromLowerLayer:count 0
scalar SingleCell_Standalone_D2D.ueD2DTx[1].cellularNic.rlcMux receivedPacketFromLowerLayer:sum(packetBytes) 0
scalar SingleCell_Standalone_D2D.ueD2DTx[1].cellularNic.mac harqErrorRate_4th_D2D:mean -nan
scalar SingleCell_Standalone_D2D.ueD2DTx[1].cellularNic.mac harqErrorRate_3rd_D2D:mean -nan
scalar SingleCell_Standalone_D2D.ueD2DTx[1].cellularNic.mac harqErrorRate_2nd_D2D:mean -nan
scalar SingleCell_Standalone_D2D.ueD2DTx[1].cellularNic.mac harqErrorRate_1st_D2D:mean -nan
scalar SingleCell_Standalone_D2D.ueD2DTx[1].cellularNic.mac harqErrorRateD2D:mean -nan
scalar SingleCell_Standalone_D2D.ueD2DTx[1].cellularNic.mac macPacketLossD2D:mean -nan
scalar SingleCell_Standalone_D2D.ueD2DTx[1].cellularNic.mac macDelayD2D:mean -nan
scalar SingleCell_Standalone_D2D.ueD2DTx[1].cellularNic.mac macThroughputD2D:simu5g_rateavg -nan
scalar SingleCell_Standalone_D2D.ueD2DTx[1].cellularNic.mac harqTxAttemptsUl:mean -nan
scalar SingleCell_Standalone_D2D.ueD2DTx[1].cellularNic.mac harqTxAttemptsDl:mean -nan
scalar SingleCell_Standalone_D2D.ueD2DTx[1].cellularNic.mac harqErrorRate_4th_Ul:mean -nan
scalar SingleCell_Standalone_D2D.ueD2DTx[1].cellularNic.mac harqErrorRate_4th_Dl:mean -nan
scalar SingleCell_Standalone_D2D.ueD2DTx[1].cellularNic.mac harqErrorRate_3rd_Ul:mean -nan
scalar SingleCell_Standalone_D2D.ueD2DTx[1].cellularNic.mac harqErrorRate_3rd_Dl:mean -nan
scalar SingleCell_Standalone_D2D.ueD2DTx[1].cellularNic.mac harqErrorRate_2nd_Ul:mean -nan
scalar SingleCell_Standalone_D2D.ueD2DTx[1].cellularNic.mac harqErrorRate_2nd_Dl:mean -nan
scalar SingleCell_Standalone_D2D.ueD2DTx[1].cellularNic.mac harqErrorRate_1st_Ul:mean -nan
scalar SingleCell_Standalone_D2D.ueD2DTx[1].cellularNic.mac harqErrorRate_1st_Dl:mean -nan
scalar SingleCell_Standalone_D2D.ueD2DTx[1].cellularNic.mac harqErrorRateUl:mean -nan
scalar SingleCell_Standalone_D2D.ueD2DTx[1].cellularNic.mac harqErrorRateDl:mean -nan
scalar SingleCell_Standalone_D2D.ueD2DTx[1].cellularNic.mac macCellPacketLossUl:mean -nan
scalar SingleCell_Standalone_D2D.ueD2DTx[1].cellularNic.mac macCellPacketLossDl:mean -nan
scalar SingleCell_Standalone_D2D.ueD2DTx[1].cellularNic.mac macPacketLossUl:mean -nan
scalar SingleCell_Standalone_D2D.ueD2DTx[1].cellularNic.mac macPacketLossDl:mean -nan
scalar SingleCell_Standalone_D2D.ueD2DTx[1].cellularNic.mac macThroughputUl:simu5g_rateavg -nan
scalar SingleCell_Standalone_D2D.ueD2DTx[1].cellularNic.mac macThroughputDl:simu5g_rateavg -nan
scalar SingleCell_Standalone_D2D.ueD2DTx[1].cellularNic.mac macDelayUl:mean -nan
scalar SingleCell_Standalone_D2D.ueD2DTx[1].cellularNic.mac macDelayDl:mean -nan
scalar SingleCell_Standalone_D2D.ueD2DTx[1].cellularNic.mac macCellThroughputUl:simu5g_rateavg -nan
scalar SingleCell_Standalone_D2D.ueD2DTx[1].cellularNic.mac macCellThroughputDl:simu5g_rateavg -nan
scalar SingleCell_Standalone_D2D.ueD2DTx[1].cellularNic.mac rcvdD2DModeSwitchNotification:count 0
scalar SingleCell_Standalone_D2D.ueD2DTx[1].cellularNic.mac sentPacketToLowerLayer:count 0
scalar SingleCell_Standalone_D2D.ueD2DTx[1].cellularNic.mac sentPacketToLowerLayer:sum(packetBytes) 0
scalar SingleCell_Standalone_D2D.ueD2DTx[1].cellularNic.mac sentPacketToUpperLayer:count 0
scalar SingleCell_Standalone_D2D.ueD2DTx[1].cellularNic.mac sentPacketToUpperLayer:sum(packetBytes) 0
scalar SingleCell_Standalone_D2D.ueD2DTx[1].cellularNic.mac receivedPacketFromLowerLayer:count 0
scalar SingleCell_Standalone_D2D.ueD2DTx[1].cellularNic.mac receivedPacketFromLowerLayer:sum(packetBytes) 0
scalar SingleCell_Standalone_D2D.ueD2DTx[1].cellularNic.mac receivedPacketFromUpperLayer:count 0
scalar SingleCell_Standalone_D2D.ueD2DTx[1].cellularNic.mac receivedPacketFromUpperLayer:sum(packetBytes) 0
scalar SingleCell_Standalone_D2D.ueD2DTx[1].cellularNic.mac macBufferOverFlowD2D:mean -nan
scalar SingleCell_Standalone_D2D.ueD2DTx[1].cellularNic.mac macBufferOverFlowUl:mean -nan
scalar SingleCell_Standalone_D2D.ueD2DTx[1].cellularNic.mac macBufferOverFlowDl:mean -nan
scalar SingleCell_Standalone_D2D.ueD2DTx[1].cellularNic.phy distance:mean -nan
scalar SingleCell_Standalone_D2D.ueD2DTx[1].cellularNic.phy averageCqiD2D:mean -nan
scalar SingleCell_Standalone_D2D.ueD2DTx[1].cellularNic.phy averageCqiUl:mean -nan
scalar SingleCell_Standalone_D2D.ueD2DTx[1].cellularNic.phy averageCqiUl:count 0
scalar SingleCell_Standalone_D2D.ueD2DTx[1].cellularNic.phy averageCqiDl:mean -nan
scalar SingleCell_Standalone_D2D.ueD2DTx[1].cellularNic.phy averageCqiDl:count 0
scalar SingleCell_Standalone_D2D.ueD2DTx[1].cellularNic.channelModel[0] measuredSinrUl:mean -nan
scalar SingleCell_Standalone_D2D.ueD2DTx[1].cellularNic.channelModel[0] measuredSinrDl:mean -nan
scalar SingleCell_Standalone_D2D.ueD2DTx[1].cellularNic.channelModel[0] rcvdSinrD2D:mean -nan
scalar SingleCell_Standalone_D2D.ueD2DTx[1].cellularNic.channelModel[0] rcvdSinrUl:mean -nan
scalar SingleCell_Standalone_D2D.ueD2DTx[1].cellularNic.channelModel[0] rcvdSinrDl:mean -nan
scalar SingleCell_Standalone_D2D.ueD2DTx[1].cellularNic.nrRlcMux rlcCellThroughputD2D:simu5g_rateavg -nan
scalar SingleCell_Standalone_D2D.ueD2DTx[1].cellularNic.nrRlcMux rlcPduThroughputD2D:simu5g_rateavg 0
scalar SingleCell_Standalone_D2D.ueD2DTx[1].cellularNic.nrRlcMux rlcPduDelayD2D:mean 0.0040000000000000027
scalar SingleCell_Standalone_D2D.ueD2DTx[1].cellularNic.nrRlcMux rlcThroughputD2D:simu5g_rateavg 17385.324858827134
scalar SingleCell_Standalone_D2D.ueD2DTx[1].cellularNic.nrRlcMux rlcDelayD2D:mean 0.014845144356955083
scalar SingleCell_Standalone_D2D.ueD2DTx[1].cellularNic.nrRlcMux rlcCellThroughputUl:simu5g_rateavg -nan
scalar SingleCell_Standalone_D2D.ueD2DTx[1].cellularNic.nrRlcMux rlcCellThroughputDl:simu5g_rateavg -nan
scalar SingleCell_Standalone_D2D.ueD2DTx[1].cellularNic.nrRlcMux rlcPduThroughputUl:simu5g_rateavg -nan
scalar SingleCell_Standalone_D2D.ueD2DTx[1].cellularNic.nrRlcMux rlcPduThroughputDl:simu5g_rateavg -nan
scalar SingleCell_Standalone_D2D.ueD2DTx[1].cellularNic.nrRlcMux rlcPduDelayUl:mean -nan
scalar SingleCell_Standalone_D2D.ueD2DTx[1].cellularNic.nrRlcMux rlcPduDelayDl:mean -nan
scalar SingleCell_Standalone_D2D.ueD2DTx[1].cellularNic.nrRlcMux rlcThroughputUl:simu5g_rateavg -nan
scalar SingleCell_Standalone_D2D.ueD2DTx[1].cellularNic.nrRlcMux rlcThroughputDl:simu5g_rateavg -nan
scalar SingleCell_Standalone_D2D.ueD2DTx[1].cellularNic.nrRlcMux rlcDelayUl:mean -nan
scalar SingleCell_Standalone_D2D.ueD2DTx[1].cellularNic.nrRlcMux rlcDelayDl:mean -nan
scalar SingleCell_Standalone_D2D.ueD2DTx[1].cellularNic.nrRlcMux sentPacketToLowerLayer:count 10471
scalar SingleCell_Standalone_D2D.ueD2DTx[1].cellularNic.nrRlcMux sentPacketToLowerLayer:sum(packetBytes) 10569974
scalar SingleCell_Standalone_D2D.ueD2DTx[1].cellularNic.nrRlcMux receivedPacketFromLowerLayer:count 657
scalar SingleCell_Standalone_D2D.ueD2DTx[1].cellularNic.nrRlcMux receivedPacketFromLowerLayer:sum(packetBytes) 376222
scalar SingleCell_Standalone_D2D.ueD2DTx[1].cellularNic.nrMac harqErrorRate_4th_D2D:mean -nan
scalar SingleCell_Standalone_D2D.ueD2DTx[1].cellularNic.nrMac harqErrorRate_3rd_D2D:mean -nan
scalar SingleCell_Standalone_D2D.ueD2DTx[1].cellularNic.nrMac harqErrorRate_2nd_D2D:mean -nan
scalar SingleCell_Standalone_D2D.ueD2DTx[1].cellularNic.nrMac harqErrorRate_1st_D2D:mean 0
scalar SingleCell_Standalone_D2D.ueD2DTx[1].cellularNic.nrMac harqErrorRateD2D:mean 0
scalar SingleCell_Standalone_D2D.ueD2DTx[1].cellularNic.nrMac macPacketLossD2D:mean 0
scalar SingleCell_Standalone_D2D.ueD2DTx[1].cellularNic.nrMac macDelayD2D:mean 0.0040000000000000027
scalar SingleCell_Standalone_D2D.ueD2DTx[1].cellularNic.nrMac macThroughputD2D:simu5g_rateavg 17617.738580430763
scalar SingleCell_Standalone_D2D.ueD2DTx[1].cellularNic.nrMac harqTxAttemptsUl:mean 1
scalar SingleCell_Standalone_D2D.ueD2DTx[1].cellularNic.nrMac harqTxAttemptsDl:mean -nan
scalar SingleCell_Standalone_D2D.ueD2DTx[1].cellularNic.nrMac harqErrorRate_4th_Ul:mean -nan
scalar SingleCell_Standalone_D2D.ueD2DTx[1].cellularNic.nrMac harqErrorRate_4th_Dl:mean -nan
scalar SingleCell_Standalone_D2D.ueD2DTx[1].cellularNic.nrMac harqErrorRate_3rd_Ul:mean -nan
scalar SingleCell_Standalone_D2D.ueD2DTx[1].cellularNic.nrMac harqErrorRate_3rd_Dl:mean -nan
scalar SingleCell_Standalone_D2D.ueD2DTx[1].cellularNic.nrMac harqErrorRate_2nd_Ul:mean -nan
scalar SingleCell_Standalone_D2D.ueD2DTx[1].cellularNic.nrMac harqErrorRate_2nd_Dl:mean -nan
scalar SingleCell_Standalone_D2D.ueD2DTx[1].cellularNic.nrMac harqErrorRate_1st_Ul:mean 0
scalar SingleCell_Standalone_D2D.ueD2DTx[1].cellularNic.nrMac harqErrorRate_1st_Dl:mean -nan
scalar SingleCell_Standalone_D2D.ueD2DTx[1].cellularNic.nrMac harqErrorRateUl:mean 0
scalar SingleCell_Standalone_D2D.ueD2DTx[1].cellularNic.nrMac harqErrorRateDl:mean -nan
scalar SingleCell_Standalone_D2D.ueD2DTx[1].cellularNic.nrMac macCellPacketLossUl:mean -nan
scalar SingleCell_Standalone_D2D.ueD2DTx[1].cellularNic.nrMac macCellPacketLossDl:mean -nan
scalar SingleCell_Standalone_D2D.ueD2DTx[1].cellularNic.nrMac macPacketLossUl:mean 0
scalar SingleCell_Standalone_D2D.ueD2DTx[1].cellularNic.nrMac macPacketLossDl:mean -nan
scalar SingleCell_Standalone_D2D.ueD2DTx[1].cellularNic.nrMac macThroughputUl:simu5g_rateavg 63.723002934623189
scalar SingleCell_Standalone_D2D.ueD2DTx[1].cellularNic.nrMac macThroughputDl:simu5g_rateavg -nan
scalar SingleCell_Standalone_D2D.ueD2DTx[1].cellularNic.nrMac macDelayUl:mean 0.0040000000000000027
scalar SingleCell_Standalone_D2D.ueD2DTx[1].cellularNic.nrMac macDelayDl:mean -nan
scalar SingleCell_Standalone_D2D.ueD2DTx[1].cellularNic.nrMac macCellThroughputUl:simu5g_rateavg -nan
scalar SingleCell_Standalone_D2D.ueD2DTx[1].cellularNic.nrMac macCellThroughputDl:simu5g_rateavg -nan
scalar SingleCell_Standalone_D2D.ueD2DTx[1].cellularNic.nrMac rcvdD2DModeSwitchNotification:count 0
scalar SingleCell_Standalone_D2D.ueD2DTx[1].cellularNic.nrMac sentPacketToLowerLayer:count 3945
scalar SingleCell_Standalone_D2D.ueD2DTx[1].cellularNic.nrMac sentPacketToLowerLayer:sum(packetBytes) 5292215
scalar SingleCell_Standalone_D2D.ueD2DTx[1].cellularNic.nrMac sentPacketToUpperLayer:count 1969
scalar SingleCell_Standalone_D2D.ueD2DTx[1].cellularNic.nrMac sentPacketToUpperLayer:sum(packetBytes) 377534
scalar SingleCell_Standalone_D2D.ueD2DTx[1].cellularNic.nrMac receivedPacketFromLowerLayer:count 5259
scalar SingleCell_Standalone_D2D.ueD2DTx[1].cellularNic.nrMac receivedPacketFromLowerLayer:sum(packetBytes) 382138
scalar SingleCell_Standalone_D2D.ueD2DTx[1].cellularNic.nrMac receivedPacketFromUpperLayer:count 10471
scalar SingleCell_Standalone_D2D.ueD2DTx[1].cellularNic.nrMac receivedPacketFromUpperLayer:sum(packetBytes) 10569974
scalar SingleCell_Standalone_D2D.ueD2DTx[1].cellularNic.nrMac macBufferOverFlowD2D:mean -nan
scalar SingleCell_Standalone_D2D.ueD2DTx[1].cellularNic.nrMac macBufferOverFlowUl:mean -nan
scalar SingleCell_Standalone_D2D.ueD2DTx[1].cellularNic.nrMac macBufferOverFlowDl:mean -nan
scalar SingleCell_Standalone_D2D.ueD2DTx[1].cellularNic.nrPhy distance:mean -nan
scalar SingleCell_Standalone_D2D.ueD2DTx[1].cellularNic.nrPhy averageCqiD2D:mean 15
scalar SingleCell_Standalone_D2D.ueD2DTx[1].cellularNic.nrPhy averageCqiUl:mean 15
scalar SingleCell_Standalone_D2D.ueD2DTx[1].cellularNic.nrPhy averageCqiUl:count 659
scalar SingleCell_Standalone_D2D.ueD2DTx[1].cellularNic.nrPhy averageCqiDl:mean -nan
scalar SingleCell_Standalone_D2D.ueD2DTx[1].cellularNic.nrPhy averageCqiDl:count 0
scalar SingleCell_Standalone_D2D.ueD2DTx[1].cellularNic.nrChannelModel[0] measuredSinrUl:mean 41.536269571502608
scalar SingleCell_Standalone_D2D.ueD2DTx[1].cellularNic.nrChannelModel[0] measuredSinrDl:mean 67.256743393198633
scalar SingleCell_Standalone_D2D.ueD2DTx[1].cellularNic.nrChannelModel[0] rcvdSinrD2D:mean -nan
scalar SingleCell_Standalone_D2D.ueD2DTx[1].cellularNic.nrChannelModel[0] rcvdSinrUl:mean 54.892244341127935
scalar SingleCell_Standalone_D2D.ueD2DTx[1].cellularNic.nrChannelModel[0] rcvdSinrDl:mean -nan
scalar SingleCell_Standalone_D2D.ueD2DTx[1].cellularNic packetDropInterfaceDown:count 0
scalar SingleCell_Standalone_D2D.ueD2DTx[1].cellularNic packetDropInterfaceDown:sum(packetBytes) 0
scalar SingleCell_Standalone_D2D.ueD2DTx[1].cellularNic packetDropNoCarrier:count 0
scalar SingleCell_Standalone_D2D.ueD2DTx[1].cellularNic packetDropNoCarrier:sum(packetBytes) 0
scalar SingleCell_Standalone_D2D.ueD2DTx[1].encap pauseSent:count 0
scalar SingleCell_Standalone_D2D.ueD2DTx[1].encap pauseSent:sum 0
scalar SingleCell_Standalone_D2D.ueD2DTx[1].encap decapPk:count 0
scalar SingleCell_Standalone_D2D.ueD2DTx[1].encap decapPk:sum(packetBytes) 0
scalar SingleCell_Standalone_D2D.ueD2DTx[1].encap encapPk:count 0
scalar SingleCell_Standalone_D2D.ueD2DTx[1].encap encapPk:sum(packetBytes) 0
scalar SingleCell_Standalone_D2D.ueD2DTx[1].ipv4.ip packetDropAddressResolutionFailed:count 0
scalar SingleCell_Standalone_D2D.ueD2DTx[1].ipv4.ip packetDropAddressResolutionFailed:sum(packetBytes) 0
scalar SingleCell_Standalone_D2D.ueD2DTx[1].ipv4.ip packetDropHopLimitReached:count 0
scalar SingleCell_Standalone_D2D.ueD2DTx[1].ipv4.ip packetDropHopLimitReached:sum(packetBytes) 0
scalar SingleCell_Standalone_D2D.ueD2DTx[1].ipv4.ip packetDropForwardingDisabled:count 0
scalar SingleCell_Standalone_D2D.ueD2DTx[1].ipv4.ip packetDropForwardingDisabled:sum(packetBytes) 0
scalar SingleCell_Standalone_D2D.ueD2DTx[1].ipv4.ip packetDropNoInterfaceFound:count 0
scalar SingleCell_Standalone_D2D.ueD2DTx[1].ipv4.ip packetDropNoInterfaceFound:sum(packetBytes) 0
scalar SingleCell_Standalone_D2D.ueD2DTx[1].ipv4.ip packetDropNoRouteFound:count 0
scalar SingleCell_Standalone_D2D.ueD2DTx[1].ipv4.ip packetDropNoRouteFound:sum(packetBytes) 0
scalar SingleCell_Standalone_D2D.ueD2DTx[1].ipv4.ip packetDropUndefined:count 0
scalar SingleCell_Standalone_D2D.ueD2DTx[1].ipv4.ip packetDropUndefined:sum(packetBytes) 0
scalar SingleCell_Standalone_D2D.ueD2DTx[1].ipv4.arp arpResolutionFailed:count 0
scalar SingleCell_Standalone_D2D.ueD2DTx[1].ipv4.arp arpResolutionCompleted:count 0
scalar SingleCell_Standalone_D2D.ueD2DTx[1].ipv4.arp arpResolutionInitiated:count 0
scalar SingleCell_Standalone_D2D.ueD2DTx[1].ipv4.arp arpReplySent:count 0
scalar SingleCell_Standalone_D2D.ueD2DTx[1].ipv4.arp arpReplySent:sum(packetBytes) 0
scalar SingleCell_Standalone_D2D.ueD2DTx[1].ipv4.arp arpRequestSent:count 0
scalar SingleCell_Standalone_D2D.ueD2DTx[1].ipv4.arp arpRequestSent:sum(packetBytes) 0
scalar SingleCell_Standalone_D2D.ueD2DTx[1].udp packetReceived:count 0
scalar SingleCell_Standalone_D2D.ueD2DTx[1].udp packetReceived:sum(packetBytes) 0
scalar SingleCell_Standalone_D2D.ueD2DTx[1].udp packetSent:count 0
scalar SingleCell_Standalone_D2D.ueD2DTx[1].udp packetSent:sum(packetBytes) 0
scalar SingleCell_Standalone_D2D.ueD2DTx[1].udp passedUpPk:count 0
scalar SingleCell_Standalone_D2D.ueD2DTx[1].udp droppedPkWrongPort:count 0
scalar SingleCell_Standalone_D2D.ueD2DTx[1].udp droppedPkBadChecksum:count 0
scalar SingleCell_Standalone_D2D.ueD2DTx[1].app[0] bytesRcvd 0
scalar SingleCell_Standalone_D2D.ueD2DTx[1].app[0] bytesSent 1073741824
scalar SingleCell_Standalone_D2D.ueD2DTx[1].app[0] packetReceived:count 0
scalar SingleCell_Standalone_D2D.ueD2DTx[1].app[0] packetReceived:sum(packetBytes) 0
scalar SingleCell_Standalone_D2D.ueD2DTx[1].app[0] packetSent:count 1
scalar SingleCell_Standalone_D2D.ueD2DTx[1].app[0] packetSent:sum(packetBytes) 1073741824
scalar SingleCell_Standalone_D2D.ueD2DTx[2].lo[0].lo rcvdPkFromHl:count 0
scalar SingleCell_Standalone_D2D.ueD2DTx[2].lo[0].lo rcvdPkFromHl:sum(packetBytes) 0
scalar SingleCell_Standalone_D2D.ueD2DTx[2].lo[0].lo passedUpPk:count 0
scalar SingleCell_Standalone_D2D.ueD2DTx[2].lo[0].lo passedUpPk:sum(packetBytes) 0
scalar SingleCell_Standalone_D2D.ueD2DTx[2].lo[0] packetDropInterfaceDown:count 0
scalar SingleCell_Standalone_D2D.ueD2DTx[2].lo[0] packetDropInterfaceDown:sum(packetBytes) 0
scalar SingleCell_Standalone_D2D.ueD2DTx[2].lo[0] packetDropNoCarrier:count 0
scalar SingleCell_Standalone_D2D.ueD2DTx[2].lo[0] packetDropNoCarrier:sum(packetBytes) 0
scalar SingleCell_Standalone_D2D.ueD2DTx[2].cellularNic.rlcMux rlcCellThroughputD2D:simu5g_rateavg -nan
scalar SingleCell_Standalone_D2D.ueD2DTx[2].cellularNic.rlcMux rlcPduThroughputD2D:simu5g_rateavg -nan
[...]
scalar SingleCell_Standalone_D2D.ueD2DRx[0].tcp.conn-45 rcvAck:vector:stddev 0
scalar SingleCell_Standalone_D2D.ueD2DRx[0].tcp.conn-45 rcvAck:vector:min 18001
scalar SingleCell_Standalone_D2D.ueD2DRx[0].tcp.conn-45 rcvAck:vector:max 18001
scalar SingleCell_Standalone_D2D.ueD2DRx[0].tcp.conn-45 rcvAck:vector:starttime 0.10200000000000001
scalar SingleCell_Standalone_D2D.ueD2DRx[0].tcp.conn-45 rcvAck:vector:endtime 19.990000000000002
scalar SingleCell_Standalone_D2D.ueD2DRx[0].tcp.conn-45 unacked:vector:count 1
scalar SingleCell_Standalone_D2D.ueD2DRx[0].tcp.conn-45 unacked:vector:sum 0
scalar SingleCell_Standalone_D2D.ueD2DRx[0].tcp.conn-45 unacked:vector:sumweights 1
scalar SingleCell_Standalone_D2D.ueD2DRx[0].tcp.conn-45 unacked:vector:mean 0
scalar SingleCell_Standalone_D2D.ueD2DRx[0].tcp.conn-45 unacked:vector:stddev nan
scalar SingleCell_Standalone_D2D.ueD2DRx[0].tcp.conn-45 unacked:vector:min 0
scalar SingleCell_Standalone_D2D.ueD2DRx[0].tcp.conn-45 unacked:vector:max 0
scalar SingleCell_Standalone_D2D.ueD2DRx[0].tcp.conn-45 unacked:vector:starttime 0.10200000000000001
scalar SingleCell_Standalone_D2D.ueD2DRx[0].tcp.conn-45 unacked:vector:endtime 0.10200000000000001
scalar SingleCell_Standalone_D2D.ueD2DRx[0].tcp.conn-45 dupAcks:vector:count 8751
scalar SingleCell_Standalone_D2D.ueD2DRx[0].tcp.conn-45 dupAcks:vector:sum 0
scalar SingleCell_Standalone_D2D.ueD2DRx[0].tcp.conn-45 dupAcks:vector:sumweights 8751
scalar SingleCell_Standalone_D2D.ueD2DRx[0].tcp.conn-45 dupAcks:vector:mean 0
scalar SingleCell_Standalone_D2D.ueD2DRx[0].tcp.conn-45 dupAcks:vector:stddev 0
scalar SingleCell_Standalone_D2D.ueD2DRx[0].tcp.conn-45 dupAcks:vector:min 0
scalar SingleCell_Standalone_D2D.ueD2DRx[0].tcp.conn-45 dupAcks:vector:max 0
scalar SingleCell_Standalone_D2D.ueD2DRx[0].tcp.conn-45 dupAcks:vector:starttime 0.29299999999999998
scalar SingleCell_Standalone_D2D.ueD2DRx[0].tcp.conn-45 dupAcks:vector:endtime 19.990000000000002
scalar SingleCell_Standalone_D2D.ueD2DRx[0].tcp.conn-45 pipe:vector:count 0
scalar SingleCell_Standalone_D2D.ueD2DRx[0].tcp.conn-45 pipe:vector:sum 0
scalar SingleCell_Standalone_D2D.ueD2DRx[0].tcp.conn-45 pipe:vector:sumweights 0
scalar SingleCell_Standalone_D2D.ueD2DRx[0].tcp.conn-45 pipe:vector:mean -nan
scalar SingleCell_Standalone_D2D.ueD2DRx[0].tcp.conn-45 pipe:vector:stddev nan
scalar SingleCell_Standalone_D2D.ueD2DRx[0].tcp.conn-45 pipe:vector:min inf
scalar SingleCell_Standalone_D2D.ueD2DRx[0].tcp.conn-45 pipe:vector:max -inf
scalar SingleCell_Standalone_D2D.ueD2DRx[0].tcp.conn-45 pipe:vector:starttime nan
scalar SingleCell_Standalone_D2D.ueD2DRx[0].tcp.conn-45 pipe:vector:endtime nan
scalar SingleCell_Standalone_D2D.ueD2DRx[0].tcp.conn-45 sndSacks:vector:count 0
scalar SingleCell_Standalone_D2D.ueD2DRx[0].tcp.conn-45 sndSacks:vector:sum 0
scalar SingleCell_Standalone_D2D.ueD2DRx[0].tcp.conn-45 sndSacks:vector:sumweights 0
scalar SingleCell_Standalone_D2D.ueD2DRx[0].tcp.conn-45 sndSacks:vector:mean -nan
scalar SingleCell_Standalone_D2D.ueD2DRx[0].tcp.conn-45 sndSacks:vector:stddev nan
scalar SingleCell_Standalone_D2D.ueD2DRx[0].tcp.conn-45 sndSacks:vector:min inf
scalar SingleCell_Standalone_D2D.ueD2DRx[0].tcp.conn-45 sndSacks:vector:max -inf
scalar SingleCell_Standalone_D2D.ueD2DRx[0].tcp.conn-45 sndSacks:vector:starttime nan
scalar SingleCell_Standalone_D2D.ueD2DRx[0].tcp.conn-45 sndSacks:vector:endtime nan
scalar SingleCell_Standalone_D2D.ueD2DRx[0].tcp.conn-45 rcvSacks:vector:count 0
scalar SingleCell_Standalone_D2D.ueD2DRx[0].tcp.conn-45 rcvSacks:vector:sum 0
scalar SingleCell_Standalone_D2D.ueD2DRx[0].tcp.conn-45 rcvSacks:vector:sumweights 0
scalar SingleCell_Standalone_D2D.ueD2DRx[0].tcp.conn-45 rcvSacks:vector:mean -nan
scalar SingleCell_Standalone_D2D.ueD2DRx[0].tcp.conn-45 rcvSacks:vector:stddev nan
scalar SingleCell_Standalone_D2D.ueD2DRx[0].tcp.conn-45 rcvSacks:vector:min inf
scalar SingleCell_Standalone_D2D.ueD2DRx[0].tcp.conn-45 rcvSacks:vector:max -inf
scalar SingleCell_Standalone_D2D.ueD2DRx[0].tcp.conn-45 rcvSacks:vector:starttime nan
scalar SingleCell_Standalone_D2D.ueD2DRx[0].tcp.conn-45 rcvSacks:vector:endtime nan
scalar SingleCell_Standalone_D2D.ueD2DRx[0].tcp.conn-45 rcvOooSeg:vector:count 0
scalar SingleCell_Standalone_D2D.ueD2DRx[0].tcp.conn-45 rcvOooSeg:vector:sum 0
scalar SingleCell_Standalone_D2D.ueD2DRx[0].tcp.conn-45 rcvOooSeg:vector:sumweights 0
scalar SingleCell_Standalone_D2D.ueD2DRx[0].tcp.conn-45 rcvOooSeg:vector:mean -nan
scalar SingleCell_Standalone_D2D.ueD2DRx[0].tcp.conn-45 rcvOooSeg:vector:stddev nan
scalar SingleCell_Standalone_D2D.ueD2DRx[0].tcp.conn-45 rcvOooSeg:vector:min inf
scalar SingleCell_Standalone_D2D.ueD2DRx[0].tcp.conn-45 rcvOooSeg:vector:max -inf
scalar SingleCell_Standalone_D2D.ueD2DRx[0].tcp.conn-45 rcvOooSeg:vector:starttime nan
scalar SingleCell_Standalone_D2D.ueD2DRx[0].tcp.conn-45 rcvOooSeg:vector:endtime nan
scalar SingleCell_Standalone_D2D.ueD2DRx[0].tcp.conn-45 rcvNASeg:vector:count 0
scalar SingleCell_Standalone_D2D.ueD2DRx[0].tcp.conn-45 rcvNASeg:vector:sum 0
scalar SingleCell_Standalone_D2D.ueD2DRx[0].tcp.conn-45 rcvNASeg:vector:sumweights 0
scalar SingleCell_Standalone_D2D.ueD2DRx[0].tcp.conn-45 rcvNASeg:vector:mean -nan
scalar SingleCell_Standalone_D2D.ueD2DRx[0].tcp.conn-45 rcvNASeg:vector:stddev nan
scalar SingleCell_Standalone_D2D.ueD2DRx[0].tcp.conn-45 rcvNASeg:vector:min inf
scalar SingleCell_Standalone_D2D.ueD2DRx[0].tcp.conn-45 rcvNASeg:vector:max -inf
scalar SingleCell_Standalone_D2D.ueD2DRx[0].tcp.conn-45 rcvNASeg:vector:starttime nan
scalar SingleCell_Standalone_D2D.ueD2DRx[0].tcp.conn-45 rcvNASeg:vector:endtime nan
scalar SingleCell_Standalone_D2D.ueD2DRx[0].tcp.conn-45 sackedBytes:vector:count 0
scalar SingleCell_Standalone_D2D.ueD2DRx[0].tcp.conn-45 sackedBytes:vector:sum 0
scalar SingleCell_Standalone_D2D.ueD2DRx[0].tcp.conn-45 sackedBytes:vector:sumweights 0
scalar SingleCell_Standalone_D2D.ueD2DRx[0].tcp.conn-45 sackedBytes:vector:mean -nan
scalar SingleCell_Standalone_D2D.ueD2DRx[0].tcp.conn-45 sackedBytes:vector:stddev nan
scalar SingleCell_Standalone_D2D.ueD2DRx[0].tcp.conn-45 sackedBytes:vector:min inf
scalar SingleCell_Standalone_D2D.ueD2DRx[0].tcp.conn-45 sackedBytes:vector:max -inf
scalar SingleCell_Standalone_D2D.ueD2DRx[0].tcp.conn-45 sackedBytes:vector:starttime nan
scalar SingleCell_Standalone_D2D.ueD2DRx[0].tcp.conn-45 sackedBytes:vector:endtime nan
scalar SingleCell_Standalone_D2D.ueD2DRx[0].tcp.conn-45 tcpRcvQueueBytes:vector:count 17503
scalar SingleCell_Standalone_D2D.ueD2DRx[0].tcp.conn-45 tcpRcvQueueBytes:vector:sum 0
scalar SingleCell_Standalone_D2D.ueD2DRx[0].tcp.conn-45 tcpRcvQueueBytes:vector:sumweights 17503
scalar SingleCell_Standalone_D2D.ueD2DRx[0].tcp.conn-45 tcpRcvQueueBytes:vector:mean 0
scalar SingleCell_Standalone_D2D.ueD2DRx[0].tcp.conn-45 tcpRcvQueueBytes:vector:stddev 0
scalar SingleCell_Standalone_D2D.ueD2DRx[0].tcp.conn-45 tcpRcvQueueBytes:vector:min 0
scalar SingleCell_Standalone_D2D.ueD2DRx[0].tcp.conn-45 tcpRcvQueueBytes:vector:max 0
scalar SingleCell_Standalone_D2D.ueD2DRx[0].tcp.conn-45 tcpRcvQueueBytes:vector:starttime 0.072000000000000008
scalar SingleCell_Standalone_D2D.ueD2DRx[0].tcp.conn-45 tcpRcvQueueBytes:vector:endtime 19.990000000000002
scalar SingleCell_Standalone_D2D.ueD2DRx[0].tcp.conn-45 tcpRcvQueueDrops:vector:count 0
scalar SingleCell_Standalone_D2D.ueD2DRx[0].tcp.conn-45 tcpRcvQueueDrops:vector:sum 0
scalar SingleCell_Standalone_D2D.ueD2DRx[0].tcp.conn-45 tcpRcvQueueDrops:vector:sumweights 0
scalar SingleCell_Standalone_D2D.ueD2DRx[0].tcp.conn-45 tcpRcvQueueDrops:vector:mean -nan
scalar SingleCell_Standalone_D2D.ueD2DRx[0].tcp.conn-45 tcpRcvQueueDrops:vector:stddev nan
scalar SingleCell_Standalone_D2D.ueD2DRx[0].tcp.conn-45 tcpRcvQueueDrops:vector:min inf
scalar SingleCell_Standalone_D2D.ueD2DRx[0].tcp.conn-45 tcpRcvQueueDrops:vector:max -inf
scalar SingleCell_Standalone_D2D.ueD2DRx[0].tcp.conn-45 tcpRcvQueueDrops:vector:starttime nan
scalar SingleCell_Standalone_D2D.ueD2DRx[0].tcp.conn-45 tcpRcvQueueDrops:vector:endtime nan
scalar SingleCell_Standalone_D2D.ueD2DRx[0].tcp.conn-45 tcpRcvPayloadBytes:vector:count 8752
scalar SingleCell_Standalone_D2D.ueD2DRx[0].tcp.conn-45 tcpRcvPayloadBytes:vector:sum 4690536
scalar SingleCell_Standalone_D2D.ueD2DRx[0].tcp.conn-45 tcpRcvPayloadBytes:vector:sumweights 8752
scalar SingleCell_Standalone_D2D.ueD2DRx[0].tcp.conn-45 tcpRcvPayloadBytes:vector:mean 535.93875685557589
scalar SingleCell_Standalone_D2D.ueD2DRx[0].tcp.conn-45 tcpRcvPayloadBytes:vector:stddev 5.729426272440719
scalar SingleCell_Standalone_D2D.ueD2DRx[0].tcp.conn-45 tcpRcvPayloadBytes:vector:min 0
scalar SingleCell_Standalone_D2D.ueD2DRx[0].tcp.conn-45 tcpRcvPayloadBytes:vector:max 536
scalar SingleCell_Standalone_D2D.ueD2DRx[0].tcp.conn-45 tcpRcvPayloadBytes:vector:starttime 0.10200000000000001
scalar SingleCell_Standalone_D2D.ueD2DRx[0].tcp.conn-45 tcpRcvPayloadBytes:vector:endtime 19.990000000000002
scalar SingleCell_Standalone_D2D.ueD2DRx[0].tcp.conn-45 cwnd:vector:count 0
scalar SingleCell_Standalone_D2D.ueD2DRx[0].tcp.conn-45 cwnd:vector:sum 0
scalar SingleCell_Standalone_D2D.ueD2DRx[0].tcp.conn-45 cwnd:vector:sumweights 0
scalar SingleCell_Standalone_D2D.ueD2DRx[0].tcp.conn-45 cwnd:vector:mean -nan
scalar SingleCell_Standalone_D2D.ueD2DRx[0].tcp.conn-45 cwnd:vector:stddev nan
scalar SingleCell_Standalone_D2D.ueD2DRx[0].tcp.conn-45 cwnd:vector:min inf
scalar SingleCell_Standalone_D2D.ueD2DRx[0].tcp.conn-45 cwnd:vector:max -inf
scalar SingleCell_Standalone_D2D.ueD2DRx[0].tcp.conn-45 cwnd:vector:starttime nan
scalar SingleCell_Standalone_D2D.ueD2DRx[0].tcp.conn-45 cwnd:vector:endtime nan
scalar SingleCell_Standalone_D2D.ueD2DRx[0].tcp.conn-45 ssthresh:vector:count 0
scalar SingleCell_Standalone_D2D.ueD2DRx[0].tcp.conn-45 ssthresh:vector:sum 0
scalar SingleCell_Standalone_D2D.ueD2DRx[0].tcp.conn-45 ssthresh:vector:sumweights 0
scalar SingleCell_Standalone_D2D.ueD2DRx[0].tcp.conn-45 ssthresh:vector:mean -nan
scalar SingleCell_Standalone_D2D.ueD2DRx[0].tcp.conn-45 ssthresh:vector:stddev nan
scalar SingleCell_Standalone_D2D.ueD2DRx[0].tcp.conn-45 ssthresh:vector:min inf
scalar SingleCell_Standalone_D2D.ueD2DRx[0].tcp.conn-45 ssthresh:vector:max -inf
scalar SingleCell_Standalone_D2D.ueD2DRx[0].tcp.conn-45 ssthresh:vector:starttime nan
scalar SingleCell_Standalone_D2D.ueD2DRx[0].tcp.conn-45 ssthresh:vector:endtime nan
scalar SingleCell_Standalone_D2D.ueD2DRx[0].tcp.conn-45 rtt:vector:count 0
scalar SingleCell_Standalone_D2D.ueD2DRx[0].tcp.conn-45 rtt:vector:sum 0
scalar SingleCell_Standalone_D2D.ueD2DRx[0].tcp.conn-45 rtt:vector:sumweights 0
scalar SingleCell_Standalone_D2D.ueD2DRx[0].tcp.conn-45 rtt:vector:mean -nan
scalar SingleCell_Standalone_D2D.ueD2DRx[0].tcp.conn-45 rtt:vector:stddev nan
scalar SingleCell_Standalone_D2D.ueD2DRx[0].tcp.conn-45 rtt:vector:min inf
scalar SingleCell_Standalone_D2D.ueD2DRx[0].tcp.conn-45 rtt:vector:max -inf
scalar SingleCell_Standalone_D2D.ueD2DRx[0].tcp.conn-45 rtt:vector:starttime nan
scalar SingleCell_Standalone_D2D.ueD2DRx[0].tcp.conn-45 rtt:vector:endtime nan
scalar SingleCell_Standalone_D2D.ueD2DRx[0].tcp.conn-45 srtt:vector:count 0
scalar SingleCell_Standalone_D2D.ueD2DRx[0].tcp.conn-45 srtt:vector:sum 0
scalar SingleCell_Standalone_D2D.ueD2DRx[0].tcp.conn-45 srtt:vector:sumweights 0
scalar SingleCell_Standalone_D2D.ueD2DRx[0].tcp.conn-45 srtt:vector:mean -nan
scalar SingleCell_Standalone_D2D.ueD2DRx[0].tcp.conn-45 srtt:vector:stddev nan
scalar SingleCell_Standalone_D2D.ueD2DRx[0].tcp.conn-45 srtt:vector:min inf
scalar SingleCell_Standalone_D2D.ueD2DRx[0].tcp.conn-45 srtt:vector:max -inf
scalar SingleCell_Standalone_D2D.ueD2DRx[0].tcp.conn-45 srtt:vector:starttime nan
scalar SingleCell_Standalone_D2D.ueD2DRx[0].tcp.conn-45 srtt:vector:endtime nan
scalar SingleCell_Standalone_D2D.ueD2DRx[0].tcp.conn-45 rttvar:vector:count 0
scalar SingleCell_Standalone_D2D.ueD2DRx[0].tcp.conn-45 rttvar:vector:sum 0
scalar SingleCell_Standalone_D2D.ueD2DRx[0].tcp.conn-45 rttvar:vector:sumweights 0
scalar SingleCell_Standalone_D2D.ueD2DRx[0].tcp.conn-45 rttvar:vector:mean -nan
scalar SingleCell_Standalone_D2D.ueD2DRx[0].tcp.conn-45 rttvar:vector:stddev nan
scalar SingleCell_Standalone_D2D.ueD2DRx[0].tcp.conn-45 rttvar:vector:min inf
scalar SingleCell_Standalone_D2D.ueD2DRx[0].tcp.conn-45 rttvar:vector:max -inf
scalar SingleCell_Standalone_D2D.ueD2DRx[0].tcp.conn-45 rttvar:vector:starttime nan
scalar SingleCell_Standalone_D2D.ueD2DRx[0].tcp.conn-45 rttvar:vector:endtime nan
scalar SingleCell_Standalone_D2D.ueD2DRx[0].tcp.conn-45 rto:vector:count 0
scalar SingleCell_Standalone_D2D.ueD2DRx[0].tcp.conn-45 rto:vector:sum 0
scalar SingleCell_Standalone_D2D.ueD2DRx[0].tcp.conn-45 rto:vector:sumweights 0
scalar SingleCell_Standalone_D2D.ueD2DRx[0].tcp.conn-45 rto:vector:mean -nan
scalar SingleCell_Standalone_D2D.ueD2DRx[0].tcp.conn-45 rto:vector:stddev nan
scalar SingleCell_Standalone_D2D.ueD2DRx[0].tcp.conn-45 rto:vector:min inf
scalar SingleCell_Standalone_D2D.ueD2DRx[0].tcp.conn-45 rto:vector:max -inf
scalar SingleCell_Standalone_D2D.ueD2DRx[0].tcp.conn-45 rto:vector:starttime nan
scalar SingleCell_Standalone_D2D.ueD2DRx[0].tcp.conn-45 rto:vector:endtime nan
scalar SingleCell_Standalone_D2D.ueD2DRx[0].tcp.conn-45 numRtos:vector:count 0
scalar SingleCell_Standalone_D2D.ueD2DRx[0].tcp.conn-45 numRtos:vector:sum 0
scalar SingleCell_Standalone_D2D.ueD2DRx[0].tcp.conn-45 numRtos:vector:sumweights 0
scalar SingleCell_Standalone_D2D.ueD2DRx[0].tcp.conn-45 numRtos:vector:mean -nan
scalar SingleCell_Standalone_D2D.ueD2DRx[0].tcp.conn-45 numRtos:vector:stddev nan
scalar SingleCell_Standalone_D2D.ueD2DRx[0].tcp.conn-45 numRtos:vector:min inf
scalar SingleCell_Standalone_D2D.ueD2DRx[0].tcp.conn-45 numRtos:vector:max -inf
scalar SingleCell_Standalone_D2D.ueD2DRx[0].tcp.conn-45 numRtos:vector:starttime nan
scalar SingleCell_Standalone_D2D.ueD2DRx[0].tcp.conn-45 numRtos:vector:endtime nan
scalar SingleCell_Standalone_D2D.ueD2DRx[0].tcp.conn-45 load:vector:count 0
scalar SingleCell_Standalone_D2D.ueD2DRx[0].tcp.conn-45 load:vector:sum 0
scalar SingleCell_Standalone_D2D.ueD2DRx[0].tcp.conn-45 load:vector:sumweights 0
scalar SingleCell_Standalone_D2D.ueD2DRx[0].tcp.conn-45 load:vector:mean -nan
scalar SingleCell_Standalone_D2D.ueD2DRx[0].tcp.conn-45 load:vector:stddev nan
scalar SingleCell_Standalone_D2D.ueD2DRx[0].tcp.conn-45 load:vector:min inf
scalar SingleCell_Standalone_D2D.ueD2DRx[0].tcp.conn-45 load:vector:max -inf
scalar SingleCell_Standalone_D2D.ueD2DRx[0].tcp.conn-45 load:vector:starttime nan
scalar SingleCell_Standalone_D2D.ueD2DRx[0].tcp.conn-45 load:vector:endtime nan
scalar SingleCell_Standalone_D2D.ueD2DRx[0].tcp.conn-45 calcLoad:vector:count 0
scalar SingleCell_Standalone_D2D.ueD2DRx[0].tcp.conn-45 calcLoad:vector:sum 0
scalar SingleCell_Standalone_D2D.ueD2DRx[0].tcp.conn-45 calcLoad:vector:sumweights 0
scalar SingleCell_Standalone_D2D.ueD2DRx[0].tcp.conn-45 calcLoad:vector:mean -nan
scalar SingleCell_Standalone_D2D.ueD2DRx[0].tcp.conn-45 calcLoad:vector:stddev nan
scalar SingleCell_Standalone_D2D.ueD2DRx[0].tcp.conn-45 calcLoad:vector:min inf
scalar SingleCell_Standalone_D2D.ueD2DRx[0].tcp.conn-45 calcLoad:vector:max -inf
scalar SingleCell_Standalone_D2D.ueD2DRx[0].tcp.conn-45 calcLoad:vector:starttime nan
scalar SingleCell_Standalone_D2D.ueD2DRx[0].tcp.conn-45 calcLoad:vector:endtime nan
scalar SingleCell_Standalone_D2D.ueD2DRx[0].tcp.conn-45 markingProb:vector:count 0
scalar SingleCell_Standalone_D2D.ueD2DRx[0].tcp.conn-45 markingProb:vector:sum 0
scalar SingleCell_Standalone_D2D.ueD2DRx[0].tcp.conn-45 markingProb:vector:sumweights 0
scalar SingleCell_Standalone_D2D.ueD2DRx[0].tcp.conn-45 markingProb:vector:mean -nan
scalar SingleCell_Standalone_D2D.ueD2DRx[0].tcp.conn-45 markingProb:vector:stddev nan
scalar SingleCell_Standalone_D2D.ueD2DRx[0].tcp.conn-45 markingProb:vector:min inf
scalar SingleCell_Standalone_D2D.ueD2DRx[0].tcp.conn-45 markingProb:vector:max -inf
scalar SingleCell_Standalone_D2D.ueD2DRx[0].tcp.conn-45 markingProb:vector:starttime nan
scalar SingleCell_Standalone_D2D.ueD2DRx[0].tcp.conn-45 markingProb:vector:endtime nan
scalar SingleCell_Standalone_D2D.ueD2DRx[3].app[0].thread_44 packetReceived:vector(packetBytes):count 9143
scalar SingleCell_Standalone_D2D.ueD2DRx[3].app[0].thread_44 packetReceived:vector(packetBytes):sum 4900648
scalar SingleCell_Standalone_D2D.ueD2DRx[3].app[0].thread_44 packetReceived:vector(packetBytes):sumweights 9143
scalar SingleCell_Standalone_D2D.ueD2DRx[3].app[0].thread_44 packetReceived:vector(packetBytes):mean 536
scalar SingleCell_Standalone_D2D.ueD2DRx[3].app[0].thread_44 packetReceived:vector(packetBytes):stddev 0
scalar SingleCell_Standalone_D2D.ueD2DRx[3].app[0].thread_44 packetReceived:vector(packetBytes):min 536
scalar SingleCell_Standalone_D2D.ueD2DRx[3].app[0].thread_44 packetReceived:vector(packetBytes):max 536
scalar SingleCell_Standalone_D2D.ueD2DRx[3].app[0].thread_44 packetReceived:vector(packetBytes):starttime 0.314
scalar SingleCell_Standalone_D2D.ueD2DRx[3].app[0].thread_44 packetReceived:vector(packetBytes):endtime 19.981000000000002
scalar SingleCell_Standalone_D2D.ueD2DRx[3].app[0].thread_44 endToEndDelay:vector:count 9143
scalar SingleCell_Standalone_D2D.ueD2DRx[3].app[0].thread_44 endToEndDelay:vector:sum 90451.11221341975
scalar SingleCell_Standalone_D2D.ueD2DRx[3].app[0].thread_44 endToEndDelay:vector:sumweights 9143
scalar SingleCell_Standalone_D2D.ueD2DRx[3].app[0].thread_44 endToEndDelay:vector:mean 9.8929358212205791
scalar SingleCell_Standalone_D2D.ueD2DRx[3].app[0].thread_44 endToEndDelay:vector:stddev 5.658654536924308
scalar SingleCell_Standalone_D2D.ueD2DRx[3].app[0].thread_44 endToEndDelay:vector:min 0.014613170012
scalar SingleCell_Standalone_D2D.ueD2DRx[3].app[0].thread_44 endToEndDelay:vector:max 19.681613170012
scalar SingleCell_Standalone_D2D.ueD2DRx[3].app[0].thread_44 endToEndDelay:vector:starttime 0.314
scalar SingleCell_Standalone_D2D.ueD2DRx[3].app[0].thread_44 endToEndDelay:vector:endtime 19.981000000000002
scalar SingleCell_Standalone_D2D.ueD2DRx[0].app[0].thread_45 packetReceived:vector(packetBytes):count 8751
scalar SingleCell_Standalone_D2D.ueD2DRx[0].app[0].thread_45 packetReceived:vector(packetBytes):sum 4690536
scalar SingleCell_Standalone_D2D.ueD2DRx[0].app[0].thread_45 packetReceived:vector(packetBytes):sumweights 8751
scalar SingleCell_Standalone_D2D.ueD2DRx[0].app[0].thread_45 packetReceived:vector(packetBytes):mean 536
scalar SingleCell_Standalone_D2D.ueD2DRx[0].app[0].thread_45 packetReceived:vector(packetBytes):stddev 0
scalar SingleCell_Standalone_D2D.ueD2DRx[0].app[0].thread_45 packetReceived:vector(packetBytes):min 536
scalar SingleCell_Standalone_D2D.ueD2DRx[0].app[0].thread_45 packetReceived:vector(packetBytes):max 536
scalar SingleCell_Standalone_D2D.ueD2DRx[0].app[0].thread_45 packetReceived:vector(packetBytes):starttime 0.29299999999999998
scalar SingleCell_Standalone_D2D.ueD2DRx[0].app[0].thread_45 packetReceived:vector(packetBytes):endtime 19.990000000000002
scalar SingleCell_Standalone_D2D.ueD2DRx[0].app[0].thread_45 endToEndDelay:vector:count 8751
scalar SingleCell_Standalone_D2D.ueD2DRx[0].app[0].thread_45 endToEndDelay:vector:sum 86642.130857880227
scalar SingleCell_Standalone_D2D.ueD2DRx[0].app[0].thread_45 endToEndDelay:vector:sumweights 8751
scalar SingleCell_Standalone_D2D.ueD2DRx[0].app[0].thread_45 endToEndDelay:vector:mean 9.9008262893246748
scalar SingleCell_Standalone_D2D.ueD2DRx[0].app[0].thread_45 endToEndDelay:vector:stddev 5.6534396718906317
scalar SingleCell_Standalone_D2D.ueD2DRx[0].app[0].thread_45 endToEndDelay:vector:min 0.014785493986999999
scalar SingleCell_Standalone_D2D.ueD2DRx[0].app[0].thread_45 endToEndDelay:vector:max 19.711785493986998
scalar SingleCell_Standalone_D2D.ueD2DRx[0].app[0].thread_45 endToEndDelay:vector:starttime 0.29299999999999998
scalar SingleCell_Standalone_D2D.ueD2DRx[0].app[0].thread_45 endToEndDelay:vector:endtime 19.990000000000002

