version 3
run MultiplePairs-0-20260712-21:00:04-252995
attr configname MultiplePairs
attr datetime 20260712-21:00:04
attr datetimef 20260712-210004
attr experiment MultiplePairs
attr inifile omnetpp.ini
attr iterationvars $numPairs=5
attr iterationvarsd numPairs=5
attr iterationvarsf numPairs=5-
attr measurement $numPairs=5
attr network simu5g.simulations.nr.networks.SingleCell_Standalone_D2D
attr processid 252995
attr repetition 0
attr replication #0
attr resultdir results
attr runnumber 0
attr seedset 0
itervar numPairs 5
config **.param-recording false
config image-path /home/andras/projects/Simu5G-fork/simu5g-fork/images
config output-scalar-file results/omnetpp.ini-MultiplePairs-#0.sca
config output-scalar-precision 17
config output-vector-file results/omnetpp.ini-MultiplePairs-#0.vec
config output-vector-precision 17
config record-eventlog false
config sim-time-limit 20s
config network simu5g.simulations.nr.networks.SingleCell_Standalone_D2D
config *.gnb.mobility.initialX 300m
config *.gnb.mobility.initialY 300m
config *.numUeCell 0
config *.numUeD2DTx 5
config *.numUeD2DRx 5
config *.ue*[*].servingNodeId 0
config *.ue*[*].nrServingNodeId 1
config *.ueD2D*[*].mobility.initialX uniform(290m,310m)
config *.ueD2D*[*].mobility.initialY uniform(340m,350m)
config sim-time-limit 20s
config warmup-period 0s
config repeat 3
config **.routingRecorder.enabled false
config output-scalar-file results/MultiplePairs/0.sca
config output-vector-file results/MultiplePairs/0.vec
config seed-set 0
config **.vector-recording false
config **.mobility.constraintAreaMaxX 1000m
config **.mobility.constraintAreaMaxY 1000m
config **.mobility.constraintAreaMinX 0m
config **.mobility.constraintAreaMinY 0m
config **.mobility.constraintAreaMinZ 0m
config **.mobility.constraintAreaMaxZ 0m
config **.mobility.initFromDisplayString false
config **.numBands 50
config **.ueTxPower 26dBm
config **.eNodeBTxPower 40dBm
config **.targetBler 0.01
config **.blerShift 5
config *.configurator.config "xmldoc(\"./demo.xml\")"

scalar SingleCell_Standalone_D2D.server.lo[0].lo rcvdPkFromHl:count 0
scalar SingleCell_Standalone_D2D.server.lo[0].lo rcvdPkFromHl:sum(packetBytes) 0
scalar SingleCell_Standalone_D2D.server.lo[0].lo passedUpPk:count 0
scalar SingleCell_Standalone_D2D.server.lo[0].lo passedUpPk:sum(packetBytes) 0
scalar SingleCell_Standalone_D2D.server.lo[0] packetDropInterfaceDown:count 0
scalar SingleCell_Standalone_D2D.server.lo[0] packetDropInterfaceDown:sum(packetBytes) 0
scalar SingleCell_Standalone_D2D.server.lo[0] packetDropNoCarrier:count 0
scalar SingleCell_Standalone_D2D.server.lo[0] packetDropNoCarrier:sum(packetBytes) 0
scalar SingleCell_Standalone_D2D.server.ppp[0].queue queueLength:last 0
scalar SingleCell_Standalone_D2D.server.ppp[0].queue queueLength:max 0
scalar SingleCell_Standalone_D2D.server.ppp[0].queue queueLength:timeavg 0
scalar SingleCell_Standalone_D2D.server.ppp[0].queue queueBitLength:last 0
scalar SingleCell_Standalone_D2D.server.ppp[0].queue queueBitLength:max 0
scalar SingleCell_Standalone_D2D.server.ppp[0].queue queueBitLength:timeavg 0
scalar SingleCell_Standalone_D2D.server.ppp[0].queue outgoingPackets:count 0
scalar SingleCell_Standalone_D2D.server.ppp[0].queue outgoingPacketLengths:sum 0
scalar SingleCell_Standalone_D2D.server.ppp[0].queue incomingPackets:count 0
scalar SingleCell_Standalone_D2D.server.ppp[0].queue incomingPacketLengths:sum 0
scalar SingleCell_Standalone_D2D.server.ppp[0].queue droppedPacketsQueueOverflow:count 0
scalar SingleCell_Standalone_D2D.server.ppp[0].queue droppedPacketLengthsQueueOverflow:sum 0
scalar SingleCell_Standalone_D2D.server.ppp[0].ppp transmissionState:timeavg 0
scalar SingleCell_Standalone_D2D.server.ppp[0].ppp rxPkOk:count 0
scalar SingleCell_Standalone_D2D.server.ppp[0].ppp rxPkOk:sum(packetBytes) 0
scalar SingleCell_Standalone_D2D.server.ppp[0].ppp txPk:count 0
scalar SingleCell_Standalone_D2D.server.ppp[0].ppp txPk:sum(packetBytes) 0
scalar SingleCell_Standalone_D2D.server.ppp[0].ppp rcvdPkFromHl:count 0
scalar SingleCell_Standalone_D2D.server.ppp[0].ppp rcvdPkFromHl:sum(packetBytes) 0
scalar SingleCell_Standalone_D2D.server.ppp[0].ppp passedUpPk:count 0
scalar SingleCell_Standalone_D2D.server.ppp[0].ppp passedUpPk:sum(packetBytes) 0
scalar SingleCell_Standalone_D2D.server.ppp[0].ppp packetDropIncorrectlyReceived:count 0
scalar SingleCell_Standalone_D2D.server.ppp[0].ppp packetDropIncorrectlyReceived:sum(packetBytes) 0
scalar SingleCell_Standalone_D2D.server.ppp[0].ppp packetDropInterfaceDown:count 0
scalar SingleCell_Standalone_D2D.server.ppp[0].ppp packetDropInterfaceDown:sum(packetBytes) 0
scalar SingleCell_Standalone_D2D.server.ppp[0] packetDropInterfaceDown:count 0
scalar SingleCell_Standalone_D2D.server.ppp[0] packetDropInterfaceDown:sum(packetBytes) 0
scalar SingleCell_Standalone_D2D.server.ppp[0] packetDropNoCarrier:count 0
scalar SingleCell_Standalone_D2D.server.ppp[0] packetDropNoCarrier:sum(packetBytes) 0
scalar SingleCell_Standalone_D2D.server.ipv4.ip packetDropAddressResolutionFailed:count 0
scalar SingleCell_Standalone_D2D.server.ipv4.ip packetDropAddressResolutionFailed:sum(packetBytes) 0
scalar SingleCell_Standalone_D2D.server.ipv4.ip packetDropHopLimitReached:count 0
scalar SingleCell_Standalone_D2D.server.ipv4.ip packetDropHopLimitReached:sum(packetBytes) 0
scalar SingleCell_Standalone_D2D.server.ipv4.ip packetDropForwardingDisabled:count 0
scalar SingleCell_Standalone_D2D.server.ipv4.ip packetDropForwardingDisabled:sum(packetBytes) 0
scalar SingleCell_Standalone_D2D.server.ipv4.ip packetDropNoInterfaceFound:count 0
scalar SingleCell_Standalone_D2D.server.ipv4.ip packetDropNoInterfaceFound:sum(packetBytes) 0
scalar SingleCell_Standalone_D2D.server.ipv4.ip packetDropNoRouteFound:count 0
scalar SingleCell_Standalone_D2D.server.ipv4.ip packetDropNoRouteFound:sum(packetBytes) 0
scalar SingleCell_Standalone_D2D.server.ipv4.ip packetDropUndefined:count 0
scalar SingleCell_Standalone_D2D.server.ipv4.ip packetDropUndefined:sum(packetBytes) 0
scalar SingleCell_Standalone_D2D.server.ipv4.arp arpResolutionFailed:count 0
scalar SingleCell_Standalone_D2D.server.ipv4.arp arpResolutionCompleted:count 0
scalar SingleCell_Standalone_D2D.server.ipv4.arp arpResolutionInitiated:count 0
scalar SingleCell_Standalone_D2D.server.ipv4.arp arpReplySent:count 0
scalar SingleCell_Standalone_D2D.server.ipv4.arp arpReplySent:sum(packetBytes) 0
scalar SingleCell_Standalone_D2D.server.ipv4.arp arpRequestSent:count 0
scalar SingleCell_Standalone_D2D.server.ipv4.arp arpRequestSent:sum(packetBytes) 0
scalar SingleCell_Standalone_D2D.server.udp packetReceived:count 0
scalar SingleCell_Standalone_D2D.server.udp packetReceived:sum(packetBytes) 0
scalar SingleCell_Standalone_D2D.server.udp packetSent:count 0
scalar SingleCell_Standalone_D2D.server.udp packetSent:sum(packetBytes) 0
scalar SingleCell_Standalone_D2D.server.udp passedUpPk:count 0
scalar SingleCell_Standalone_D2D.server.udp droppedPkWrongPort:count 0
scalar SingleCell_Standalone_D2D.server.udp droppedPkBadChecksum:count 0
scalar SingleCell_Standalone_D2D.router.lo[0].lo rcvdPkFromHl:count 0
scalar SingleCell_Standalone_D2D.router.lo[0].lo rcvdPkFromHl:sum(packetBytes) 0
scalar SingleCell_Standalone_D2D.router.lo[0].lo passedUpPk:count 0
scalar SingleCell_Standalone_D2D.router.lo[0].lo passedUpPk:sum(packetBytes) 0
scalar SingleCell_Standalone_D2D.router.lo[0] packetDropInterfaceDown:count 0
scalar SingleCell_Standalone_D2D.router.lo[0] packetDropInterfaceDown:sum(packetBytes) 0
scalar SingleCell_Standalone_D2D.router.lo[0] packetDropNoCarrier:count 0
scalar SingleCell_Standalone_D2D.router.lo[0] packetDropNoCarrier:sum(packetBytes) 0
scalar SingleCell_Standalone_D2D.router.ppp[0].queue queueLength:last 0
scalar SingleCell_Standalone_D2D.router.ppp[0].queue queueLength:max 0
scalar SingleCell_Standalone_D2D.router.ppp[0].queue queueLength:timeavg 0
scalar SingleCell_Standalone_D2D.router.ppp[0].queue queueBitLength:last 0
scalar SingleCell_Standalone_D2D.router.ppp[0].queue queueBitLength:max 0
scalar SingleCell_Standalone_D2D.router.ppp[0].queue queueBitLength:timeavg 0
scalar SingleCell_Standalone_D2D.router.ppp[0].queue outgoingPackets:count 0
scalar SingleCell_Standalone_D2D.router.ppp[0].queue outgoingPacketLengths:sum 0
scalar SingleCell_Standalone_D2D.router.ppp[0].queue incomingPackets:count 0
scalar SingleCell_Standalone_D2D.router.ppp[0].queue incomingPacketLengths:sum 0
scalar SingleCell_Standalone_D2D.router.ppp[0].queue droppedPacketsQueueOverflow:count 0
scalar SingleCell_Standalone_D2D.router.ppp[0].queue droppedPacketLengthsQueueOverflow:sum 0
scalar SingleCell_Standalone_D2D.router.ppp[0].ppp transmissionState:timeavg 0
scalar SingleCell_Standalone_D2D.router.ppp[0].ppp rxPkOk:count 0
scalar SingleCell_Standalone_D2D.router.ppp[0].ppp rxPkOk:sum(packetBytes) 0
scalar SingleCell_Standalone_D2D.router.ppp[0].ppp txPk:count 0
scalar SingleCell_Standalone_D2D.router.ppp[0].ppp txPk:sum(packetBytes) 0
scalar SingleCell_Standalone_D2D.router.ppp[0].ppp rcvdPkFromHl:count 0
scalar SingleCell_Standalone_D2D.router.ppp[0].ppp rcvdPkFromHl:sum(packetBytes) 0
scalar SingleCell_Standalone_D2D.router.ppp[0].ppp passedUpPk:count 0
scalar SingleCell_Standalone_D2D.router.ppp[0].ppp passedUpPk:sum(packetBytes) 0
scalar SingleCell_Standalone_D2D.router.ppp[0].ppp packetDropIncorrectlyReceived:count 0
scalar SingleCell_Standalone_D2D.router.ppp[0].ppp packetDropIncorrectlyReceived:sum(packetBytes) 0
scalar SingleCell_Standalone_D2D.router.ppp[0].ppp packetDropInterfaceDown:count 0
scalar SingleCell_Standalone_D2D.router.ppp[0].ppp packetDropInterfaceDown:sum(packetBytes) 0
scalar SingleCell_Standalone_D2D.router.ppp[0] packetDropInterfaceDown:count 0
scalar SingleCell_Standalone_D2D.router.ppp[0] packetDropInterfaceDown:sum(packetBytes) 0
scalar SingleCell_Standalone_D2D.router.ppp[0] packetDropNoCarrier:count 0
scalar SingleCell_Standalone_D2D.router.ppp[0] packetDropNoCarrier:sum(packetBytes) 0
scalar SingleCell_Standalone_D2D.router.ppp[1].queue queueLength:last 0
scalar SingleCell_Standalone_D2D.router.ppp[1].queue queueLength:max 0
scalar SingleCell_Standalone_D2D.router.ppp[1].queue queueLength:timeavg 0
scalar SingleCell_Standalone_D2D.router.ppp[1].queue queueBitLength:last 0
scalar SingleCell_Standalone_D2D.router.ppp[1].queue queueBitLength:max 0
scalar SingleCell_Standalone_D2D.router.ppp[1].queue queueBitLength:timeavg 0
scalar SingleCell_Standalone_D2D.router.ppp[1].queue outgoingPackets:count 0
scalar SingleCell_Standalone_D2D.router.ppp[1].queue outgoingPacketLengths:sum 0
scalar SingleCell_Standalone_D2D.router.ppp[1].queue incomingPackets:count 0
scalar SingleCell_Standalone_D2D.router.ppp[1].queue incomingPacketLengths:sum 0
scalar SingleCell_Standalone_D2D.router.ppp[1].queue droppedPacketsQueueOverflow:count 0
scalar SingleCell_Standalone_D2D.router.ppp[1].queue droppedPacketLengthsQueueOverflow:sum 0
scalar SingleCell_Standalone_D2D.router.ppp[1].ppp transmissionState:timeavg 0
scalar SingleCell_Standalone_D2D.router.ppp[1].ppp rxPkOk:count 0
scalar SingleCell_Standalone_D2D.router.ppp[1].ppp rxPkOk:sum(packetBytes) 0
scalar SingleCell_Standalone_D2D.router.ppp[1].ppp txPk:count 0
scalar SingleCell_Standalone_D2D.router.ppp[1].ppp txPk:sum(packetBytes) 0
scalar SingleCell_Standalone_D2D.router.ppp[1].ppp rcvdPkFromHl:count 0
scalar SingleCell_Standalone_D2D.router.ppp[1].ppp rcvdPkFromHl:sum(packetBytes) 0
scalar SingleCell_Standalone_D2D.router.ppp[1].ppp passedUpPk:count 0
scalar SingleCell_Standalone_D2D.router.ppp[1].ppp passedUpPk:sum(packetBytes) 0
scalar SingleCell_Standalone_D2D.router.ppp[1].ppp packetDropIncorrectlyReceived:count 0
scalar SingleCell_Standalone_D2D.router.ppp[1].ppp packetDropIncorrectlyReceived:sum(packetBytes) 0
scalar SingleCell_Standalone_D2D.router.ppp[1].ppp packetDropInterfaceDown:count 0
scalar SingleCell_Standalone_D2D.router.ppp[1].ppp packetDropInterfaceDown:sum(packetBytes) 0
scalar SingleCell_Standalone_D2D.router.ppp[1] packetDropInterfaceDown:count 0
scalar SingleCell_Standalone_D2D.router.ppp[1] packetDropInterfaceDown:sum(packetBytes) 0
scalar SingleCell_Standalone_D2D.router.ppp[1] packetDropNoCarrier:count 0
scalar SingleCell_Standalone_D2D.router.ppp[1] packetDropNoCarrier:sum(packetBytes) 0
scalar SingleCell_Standalone_D2D.router.ipv4.ip packetDropAddressResolutionFailed:count 0
scalar SingleCell_Standalone_D2D.router.ipv4.ip packetDropAddressResolutionFailed:sum(packetBytes) 0
scalar SingleCell_Standalone_D2D.router.ipv4.ip packetDropHopLimitReached:count 0
scalar SingleCell_Standalone_D2D.router.ipv4.ip packetDropHopLimitReached:sum(packetBytes) 0
scalar SingleCell_Standalone_D2D.router.ipv4.ip packetDropForwardingDisabled:count 0
scalar SingleCell_Standalone_D2D.router.ipv4.ip packetDropForwardingDisabled:sum(packetBytes) 0
scalar SingleCell_Standalone_D2D.router.ipv4.ip packetDropNoInterfaceFound:count 0
scalar SingleCell_Standalone_D2D.router.ipv4.ip packetDropNoInterfaceFound:sum(packetBytes) 0
scalar SingleCell_Standalone_D2D.router.ipv4.ip packetDropNoRouteFound:count 0
scalar SingleCell_Standalone_D2D.router.ipv4.ip packetDropNoRouteFound:sum(packetBytes) 0
scalar SingleCell_Standalone_D2D.router.ipv4.ip packetDropUndefined:count 0
scalar SingleCell_Standalone_D2D.router.ipv4.ip packetDropUndefined:sum(packetBytes) 0
scalar SingleCell_Standalone_D2D.router.ipv4.arp arpResolutionFailed:count 0
scalar SingleCell_Standalone_D2D.router.ipv4.arp arpResolutionCompleted:count 0
scalar SingleCell_Standalone_D2D.router.ipv4.arp arpResolutionInitiated:count 0
scalar SingleCell_Standalone_D2D.router.ipv4.arp arpReplySent:count 0
scalar SingleCell_Standalone_D2D.router.ipv4.arp arpReplySent:sum(packetBytes) 0
scalar SingleCell_Standalone_D2D.router.ipv4.arp arpRequestSent:count 0
scalar SingleCell_Standalone_D2D.router.ipv4.arp arpRequestSent:sum(packetBytes) 0
scalar SingleCell_Standalone_D2D.upf.lo[0].lo rcvdPkFromHl:count 0
scalar SingleCell_Standalone_D2D.upf.lo[0].lo rcvdPkFromHl:sum(packetBytes) 0
scalar SingleCell_Standalone_D2D.upf.lo[0].lo passedUpPk:count 0
scalar SingleCell_Standalone_D2D.upf.lo[0].lo passedUpPk:sum(packetBytes) 0
scalar SingleCell_Standalone_D2D.upf.lo[0] packetDropInterfaceDown:count 0
scalar SingleCell_Standalone_D2D.upf.lo[0] packetDropInterfaceDown:sum(packetBytes) 0
scalar SingleCell_Standalone_D2D.upf.lo[0] packetDropNoCarrier:count 0
scalar SingleCell_Standalone_D2D.upf.lo[0] packetDropNoCarrier:sum(packetBytes) 0
scalar SingleCell_Standalone_D2D.upf.ppp[0].queue queueLength:last 0
scalar SingleCell_Standalone_D2D.upf.ppp[0].queue queueLength:max 0
scalar SingleCell_Standalone_D2D.upf.ppp[0].queue queueLength:timeavg 0
scalar SingleCell_Standalone_D2D.upf.ppp[0].queue queueBitLength:last 0
scalar SingleCell_Standalone_D2D.upf.ppp[0].queue queueBitLength:max 0
scalar SingleCell_Standalone_D2D.upf.ppp[0].queue queueBitLength:timeavg 0
scalar SingleCell_Standalone_D2D.upf.ppp[0].queue outgoingPackets:count 0
scalar SingleCell_Standalone_D2D.upf.ppp[0].queue outgoingPacketLengths:sum 0
scalar SingleCell_Standalone_D2D.upf.ppp[0].queue incomingPackets:count 0
scalar SingleCell_Standalone_D2D.upf.ppp[0].queue incomingPacketLengths:sum 0
scalar SingleCell_Standalone_D2D.upf.ppp[0].queue droppedPacketsQueueOverflow:count 0
scalar SingleCell_Standalone_D2D.upf.ppp[0].queue droppedPacketLengthsQueueOverflow:sum 0
scalar SingleCell_Standalone_D2D.upf.ppp[0].ppp transmissionState:timeavg 0
scalar SingleCell_Standalone_D2D.upf.ppp[0].ppp rxPkOk:count 0
scalar SingleCell_Standalone_D2D.upf.ppp[0].ppp rxPkOk:sum(packetBytes) 0
scalar SingleCell_Standalone_D2D.upf.ppp[0].ppp txPk:count 0
scalar SingleCell_Standalone_D2D.upf.ppp[0].ppp txPk:sum(packetBytes) 0
scalar SingleCell_Standalone_D2D.upf.ppp[0].ppp rcvdPkFromHl:count 0
scalar SingleCell_Standalone_D2D.upf.ppp[0].ppp rcvdPkFromHl:sum(packetBytes) 0
scalar SingleCell_Standalone_D2D.upf.ppp[0].ppp passedUpPk:count 0
scalar SingleCell_Standalone_D2D.upf.ppp[0].ppp passedUpPk:sum(packetBytes) 0
scalar SingleCell_Standalone_D2D.upf.ppp[0].ppp packetDropIncorrectlyReceived:count 0
scalar SingleCell_Standalone_D2D.upf.ppp[0].ppp packetDropIncorrectlyReceived:sum(packetBytes) 0
scalar SingleCell_Standalone_D2D.upf.ppp[0].ppp packetDropInterfaceDown:count 0
scalar SingleCell_Standalone_D2D.upf.ppp[0].ppp packetDropInterfaceDown:sum(packetBytes) 0
scalar SingleCell_Standalone_D2D.upf.ppp[0] packetDropInterfaceDown:count 0
scalar SingleCell_Standalone_D2D.upf.ppp[0] packetDropInterfaceDown:sum(packetBytes) 0
scalar SingleCell_Standalone_D2D.upf.ppp[0] packetDropNoCarrier:count 0
scalar SingleCell_Standalone_D2D.upf.ppp[0] packetDropNoCarrier:sum(packetBytes) 0
scalar SingleCell_Standalone_D2D.upf.ipv4.ip packetDropAddressResolutionFailed:count 0
scalar SingleCell_Standalone_D2D.upf.ipv4.ip packetDropAddressResolutionFailed:sum(packetBytes) 0
scalar SingleCell_Standalone_D2D.upf.ipv4.ip packetDropHopLimitReached:count 0
scalar SingleCell_Standalone_D2D.upf.ipv4.ip packetDropHopLimitReached:sum(packetBytes) 0
scalar SingleCell_Standalone_D2D.upf.ipv4.ip packetDropForwardingDisabled:count 0
scalar SingleCell_Standalone_D2D.upf.ipv4.ip packetDropForwardingDisabled:sum(packetBytes) 0
scalar SingleCell_Standalone_D2D.upf.ipv4.ip packetDropNoInterfaceFound:count 0
scalar SingleCell_Standalone_D2D.upf.ipv4.ip packetDropNoInterfaceFound:sum(packetBytes) 0
scalar SingleCell_Standalone_D2D.upf.ipv4.ip packetDropNoRouteFound:count 0
scalar SingleCell_Standalone_D2D.upf.ipv4.ip packetDropNoRouteFound:sum(packetBytes) 0
scalar SingleCell_Standalone_D2D.upf.ipv4.ip packetDropUndefined:count 0
scalar SingleCell_Standalone_D2D.upf.ipv4.ip packetDropUndefined:sum(packetBytes) 0
scalar SingleCell_Standalone_D2D.upf.ipv4.arp arpResolutionFailed:count 0
scalar SingleCell_Standalone_D2D.upf.ipv4.arp arpResolutionCompleted:count 0
scalar SingleCell_Standalone_D2D.upf.ipv4.arp arpResolutionInitiated:count 0
scalar SingleCell_Standalone_D2D.upf.ipv4.arp arpReplySent:count 0
scalar SingleCell_Standalone_D2D.upf.ipv4.arp arpReplySent:sum(packetBytes) 0
scalar SingleCell_Standalone_D2D.upf.ipv4.arp arpRequestSent:count 0
scalar SingleCell_Standalone_D2D.upf.ipv4.arp arpRequestSent:sum(packetBytes) 0
scalar SingleCell_Standalone_D2D.upf.udp packetReceived:count 0
scalar SingleCell_Standalone_D2D.upf.udp packetReceived:sum(packetBytes) 0
scalar SingleCell_Standalone_D2D.upf.udp packetSent:count 0
scalar SingleCell_Standalone_D2D.upf.udp packetSent:sum(packetBytes) 0
scalar SingleCell_Standalone_D2D.upf.udp passedUpPk:count 0
scalar SingleCell_Standalone_D2D.upf.udp droppedPkWrongPort:count 0
scalar SingleCell_Standalone_D2D.upf.udp droppedPkBadChecksum:count 0
scalar SingleCell_Standalone_D2D.upf.dnPpp.queue queueLength:last 0
scalar SingleCell_Standalone_D2D.upf.dnPpp.queue queueLength:max 0
scalar SingleCell_Standalone_D2D.upf.dnPpp.queue queueLength:timeavg 0
scalar SingleCell_Standalone_D2D.upf.dnPpp.queue queueBitLength:last 0
scalar SingleCell_Standalone_D2D.upf.dnPpp.queue queueBitLength:max 0
scalar SingleCell_Standalone_D2D.upf.dnPpp.queue queueBitLength:timeavg 0
scalar SingleCell_Standalone_D2D.upf.dnPpp.queue outgoingPackets:count 0
scalar SingleCell_Standalone_D2D.upf.dnPpp.queue outgoingPacketLengths:sum 0
scalar SingleCell_Standalone_D2D.upf.dnPpp.queue incomingPackets:count 0
scalar SingleCell_Standalone_D2D.upf.dnPpp.queue incomingPacketLengths:sum 0
scalar SingleCell_Standalone_D2D.upf.dnPpp.queue droppedPacketsQueueOverflow:count 0
scalar SingleCell_Standalone_D2D.upf.dnPpp.queue droppedPacketLengthsQueueOverflow:sum 0
scalar SingleCell_Standalone_D2D.upf.dnPpp.ppp transmissionState:timeavg 0
scalar SingleCell_Standalone_D2D.upf.dnPpp.ppp rxPkOk:count 0
scalar SingleCell_Standalone_D2D.upf.dnPpp.ppp rxPkOk:sum(packetBytes) 0
scalar SingleCell_Standalone_D2D.upf.dnPpp.ppp txPk:count 0
scalar SingleCell_Standalone_D2D.upf.dnPpp.ppp txPk:sum(packetBytes) 0
scalar SingleCell_Standalone_D2D.upf.dnPpp.ppp rcvdPkFromHl:count 0
scalar SingleCell_Standalone_D2D.upf.dnPpp.ppp rcvdPkFromHl:sum(packetBytes) 0
scalar SingleCell_Standalone_D2D.upf.dnPpp.ppp passedUpPk:count 0
scalar SingleCell_Standalone_D2D.upf.dnPpp.ppp passedUpPk:sum(packetBytes) 0
scalar SingleCell_Standalone_D2D.upf.dnPpp.ppp packetDropIncorrectlyReceived:count 0
scalar SingleCell_Standalone_D2D.upf.dnPpp.ppp packetDropIncorrectlyReceived:sum(packetBytes) 0
scalar SingleCell_Standalone_D2D.upf.dnPpp.ppp packetDropInterfaceDown:count 0
scalar SingleCell_Standalone_D2D.upf.dnPpp.ppp packetDropInterfaceDown:sum(packetBytes) 0
scalar SingleCell_Standalone_D2D.upf.dnPpp packetDropInterfaceDown:count 0
scalar SingleCell_Standalone_D2D.upf.dnPpp packetDropInterfaceDown:sum(packetBytes) 0
scalar SingleCell_Standalone_D2D.upf.dnPpp packetDropNoCarrier:count 0
scalar SingleCell_Standalone_D2D.upf.dnPpp packetDropNoCarrier:sum(packetBytes) 0
scalar SingleCell_Standalone_D2D.iUpf.lo[0].lo rcvdPkFromHl:count 0
scalar SingleCell_Standalone_D2D.iUpf.lo[0].lo rcvdPkFromHl:sum(packetBytes) 0
scalar SingleCell_Standalone_D2D.iUpf.lo[0].lo passedUpPk:count 0
scalar SingleCell_Standalone_D2D.iUpf.lo[0].lo passedUpPk:sum(packetBytes) 0
scalar SingleCell_Standalone_D2D.iUpf.lo[0] packetDropInterfaceDown:count 0
scalar SingleCell_Standalone_D2D.iUpf.lo[0] packetDropInterfaceDown:sum(packetBytes) 0
scalar SingleCell_Standalone_D2D.iUpf.lo[0] packetDropNoCarrier:count 0
scalar SingleCell_Standalone_D2D.iUpf.lo[0] packetDropNoCarrier:sum(packetBytes) 0
scalar SingleCell_Standalone_D2D.iUpf.ppp[0].queue queueLength:last 0
scalar SingleCell_Standalone_D2D.iUpf.ppp[0].queue queueLength:max 0
scalar SingleCell_Standalone_D2D.iUpf.ppp[0].queue queueLength:timeavg 0
scalar SingleCell_Standalone_D2D.iUpf.ppp[0].queue queueBitLength:last 0
scalar SingleCell_Standalone_D2D.iUpf.ppp[0].queue queueBitLength:max 0
scalar SingleCell_Standalone_D2D.iUpf.ppp[0].queue queueBitLength:timeavg 0
scalar SingleCell_Standalone_D2D.iUpf.ppp[0].queue outgoingPackets:count 0
scalar SingleCell_Standalone_D2D.iUpf.ppp[0].queue outgoingPacketLengths:sum 0
scalar SingleCell_Standalone_D2D.iUpf.ppp[0].queue incomingPackets:count 0
scalar SingleCell_Standalone_D2D.iUpf.ppp[0].queue incomingPacketLengths:sum 0
scalar SingleCell_Standalone_D2D.iUpf.ppp[0].queue droppedPacketsQueueOverflow:count 0
scalar SingleCell_Standalone_D2D.iUpf.ppp[0].queue droppedPacketLengthsQueueOverflow:sum 0
scalar SingleCell_Standalone_D2D.iUpf.ppp[0].ppp transmissionState:timeavg 0
scalar SingleCell_Standalone_D2D.iUpf.ppp[0].ppp rxPkOk:count 0
scalar SingleCell_Standalone_D2D.iUpf.ppp[0].ppp rxPkOk:sum(packetBytes) 0
scalar SingleCell_Standalone_D2D.iUpf.ppp[0].ppp txPk:count 0
scalar SingleCell_Standalone_D2D.iUpf.ppp[0].ppp txPk:sum(packetBytes) 0
scalar SingleCell_Standalone_D2D.iUpf.ppp[0].ppp rcvdPkFromHl:count 0
scalar SingleCell_Standalone_D2D.iUpf.ppp[0].ppp rcvdPkFromHl:sum(packetBytes) 0
scalar SingleCell_Standalone_D2D.iUpf.ppp[0].ppp passedUpPk:count 0
scalar SingleCell_Standalone_D2D.iUpf.ppp[0].ppp passedUpPk:sum(packetBytes) 0
scalar SingleCell_Standalone_D2D.iUpf.ppp[0].ppp packetDropIncorrectlyReceived:count 0
scalar SingleCell_Standalone_D2D.iUpf.ppp[0].ppp packetDropIncorrectlyReceived:sum(packetBytes) 0
scalar SingleCell_Standalone_D2D.iUpf.ppp[0].ppp packetDropInterfaceDown:count 0
scalar SingleCell_Standalone_D2D.iUpf.ppp[0].ppp packetDropInterfaceDown:sum(packetBytes) 0
scalar SingleCell_Standalone_D2D.iUpf.ppp[0] packetDropInterfaceDown:count 0
scalar SingleCell_Standalone_D2D.iUpf.ppp[0] packetDropInterfaceDown:sum(packetBytes) 0
scalar SingleCell_Standalone_D2D.iUpf.ppp[0] packetDropNoCarrier:count 0
scalar SingleCell_Standalone_D2D.iUpf.ppp[0] packetDropNoCarrier:sum(packetBytes) 0
scalar SingleCell_Standalone_D2D.iUpf.ppp[1].queue queueLength:last 0
scalar SingleCell_Standalone_D2D.iUpf.ppp[1].queue queueLength:max 0
scalar SingleCell_Standalone_D2D.iUpf.ppp[1].queue queueLength:timeavg 0
scalar SingleCell_Standalone_D2D.iUpf.ppp[1].queue queueBitLength:last 0
scalar SingleCell_Standalone_D2D.iUpf.ppp[1].queue queueBitLength:max 0
scalar SingleCell_Standalone_D2D.iUpf.ppp[1].queue queueBitLength:timeavg 0
scalar SingleCell_Standalone_D2D.iUpf.ppp[1].queue outgoingPackets:count 0
scalar SingleCell_Standalone_D2D.iUpf.ppp[1].queue outgoingPacketLengths:sum 0
scalar SingleCell_Standalone_D2D.iUpf.ppp[1].queue incomingPackets:count 0
scalar SingleCell_Standalone_D2D.iUpf.ppp[1].queue incomingPacketLengths:sum 0
scalar SingleCell_Standalone_D2D.iUpf.ppp[1].queue droppedPacketsQueueOverflow:count 0
scalar SingleCell_Standalone_D2D.iUpf.ppp[1].queue droppedPacketLengthsQueueOverflow:sum 0
scalar SingleCell_Standalone_D2D.iUpf.ppp[1].ppp transmissionState:timeavg 0
scalar SingleCell_Standalone_D2D.iUpf.ppp[1].ppp rxPkOk:count 0
scalar SingleCell_Standalone_D2D.iUpf.ppp[1].ppp rxPkOk:sum(packetBytes) 0
scalar SingleCell_Standalone_D2D.iUpf.ppp[1].ppp txPk:count 0
scalar SingleCell_Standalone_D2D.iUpf.ppp[1].ppp txPk:sum(packetBytes) 0
scalar SingleCell_Standalone_D2D.iUpf.ppp[1].ppp rcvdPkFromHl:count 0
scalar SingleCell_Standalone_D2D.iUpf.ppp[1].ppp rcvdPkFromHl:sum(packetBytes) 0
scalar SingleCell_Standalone_D2D.iUpf.ppp[1].ppp passedUpPk:count 0
scalar SingleCell_Standalone_D2D.iUpf.ppp[1].ppp passedUpPk:sum(packetBytes) 0
scalar SingleCell_Standalone_D2D.iUpf.ppp[1].ppp packetDropIncorrectlyReceived:count 0
scalar SingleCell_Standalone_D2D.iUpf.ppp[1].ppp packetDropIncorrectlyReceived:sum(packetBytes) 0
scalar SingleCell_Standalone_D2D.iUpf.ppp[1].ppp packetDropInterfaceDown:count 0
scalar SingleCell_Standalone_D2D.iUpf.ppp[1].ppp packetDropInterfaceDown:sum(packetBytes) 0
scalar SingleCell_Standalone_D2D.iUpf.ppp[1] packetDropInterfaceDown:count 0
scalar SingleCell_Standalone_D2D.iUpf.ppp[1] packetDropInterfaceDown:sum(packetBytes) 0
scalar SingleCell_Standalone_D2D.iUpf.ppp[1] packetDropNoCarrier:count 0
scalar SingleCell_Standalone_D2D.iUpf.ppp[1] packetDropNoCarrier:sum(packetBytes) 0
scalar SingleCell_Standalone_D2D.iUpf.ipv4.ip packetDropAddressResolutionFailed:count 0
scalar SingleCell_Standalone_D2D.iUpf.ipv4.ip packetDropAddressResolutionFailed:sum(packetBytes) 0
scalar SingleCell_Standalone_D2D.iUpf.ipv4.ip packetDropHopLimitReached:count 0
scalar SingleCell_Standalone_D2D.iUpf.ipv4.ip packetDropHopLimitReached:sum(packetBytes) 0
scalar SingleCell_Standalone_D2D.iUpf.ipv4.ip packetDropForwardingDisabled:count 0
scalar SingleCell_Standalone_D2D.iUpf.ipv4.ip packetDropForwardingDisabled:sum(packetBytes) 0
scalar SingleCell_Standalone_D2D.iUpf.ipv4.ip packetDropNoInterfaceFound:count 0
scalar SingleCell_Standalone_D2D.iUpf.ipv4.ip packetDropNoInterfaceFound:sum(packetBytes) 0
scalar SingleCell_Standalone_D2D.iUpf.ipv4.ip packetDropNoRouteFound:count 0
scalar SingleCell_Standalone_D2D.iUpf.ipv4.ip packetDropNoRouteFound:sum(packetBytes) 0
scalar SingleCell_Standalone_D2D.iUpf.ipv4.ip packetDropUndefined:count 0
scalar SingleCell_Standalone_D2D.iUpf.ipv4.ip packetDropUndefined:sum(packetBytes) 0
scalar SingleCell_Standalone_D2D.iUpf.ipv4.arp arpResolutionFailed:count 0
scalar SingleCell_Standalone_D2D.iUpf.ipv4.arp arpResolutionCompleted:count 0
scalar SingleCell_Standalone_D2D.iUpf.ipv4.arp arpResolutionInitiated:count 0
scalar SingleCell_Standalone_D2D.iUpf.ipv4.arp arpReplySent:count 0
scalar SingleCell_Standalone_D2D.iUpf.ipv4.arp arpReplySent:sum(packetBytes) 0
scalar SingleCell_Standalone_D2D.iUpf.ipv4.arp arpRequestSent:count 0
scalar SingleCell_Standalone_D2D.iUpf.ipv4.arp arpRequestSent:sum(packetBytes) 0
scalar SingleCell_Standalone_D2D.iUpf.udp packetReceived:count 0
scalar SingleCell_Standalone_D2D.iUpf.udp packetReceived:sum(packetBytes) 0
scalar SingleCell_Standalone_D2D.iUpf.udp packetSent:count 0
scalar SingleCell_Standalone_D2D.iUpf.udp packetSent:sum(packetBytes) 0
scalar SingleCell_Standalone_D2D.iUpf.udp passedUpPk:count 0
scalar SingleCell_Standalone_D2D.iUpf.udp droppedPkWrongPort:count 0
scalar SingleCell_Standalone_D2D.iUpf.udp droppedPkBadChecksum:count 0
scalar SingleCell_Standalone_D2D.iUpf.dnPpp.queue queueLength:last 0
scalar SingleCell_Standalone_D2D.iUpf.dnPpp.queue queueLength:max 0
scalar SingleCell_Standalone_D2D.iUpf.dnPpp.queue queueLength:timeavg 0
scalar SingleCell_Standalone_D2D.iUpf.dnPpp.queue queueBitLength:last 0
scalar SingleCell_Standalone_D2D.iUpf.dnPpp.queue queueBitLength:max 0
scalar SingleCell_Standalone_D2D.iUpf.dnPpp.queue queueBitLength:timeavg 0
scalar SingleCell_Standalone_D2D.iUpf.dnPpp.queue outgoingPackets:count 0
scalar SingleCell_Standalone_D2D.iUpf.dnPpp.queue outgoingPacketLengths:sum 0
scalar SingleCell_Standalone_D2D.iUpf.dnPpp.queue incomingPackets:count 0
scalar SingleCell_Standalone_D2D.iUpf.dnPpp.queue incomingPacketLengths:sum 0
scalar SingleCell_Standalone_D2D.iUpf.dnPpp.queue droppedPacketsQueueOverflow:count 0
scalar SingleCell_Standalone_D2D.iUpf.dnPpp.queue droppedPacketLengthsQueueOverflow:sum 0
scalar SingleCell_Standalone_D2D.iUpf.dnPpp.ppp transmissionState:timeavg 0
scalar SingleCell_Standalone_D2D.iUpf.dnPpp.ppp rxPkOk:count 0
scalar SingleCell_Standalone_D2D.iUpf.dnPpp.ppp rxPkOk:sum(packetBytes) 0
scalar SingleCell_Standalone_D2D.iUpf.dnPpp.ppp txPk:count 0
scalar SingleCell_Standalone_D2D.iUpf.dnPpp.ppp txPk:sum(packetBytes) 0
scalar SingleCell_Standalone_D2D.iUpf.dnPpp.ppp rcvdPkFromHl:count 0
scalar SingleCell_Standalone_D2D.iUpf.dnPpp.ppp rcvdPkFromHl:sum(packetBytes) 0
scalar SingleCell_Standalone_D2D.iUpf.dnPpp.ppp passedUpPk:count 0
scalar SingleCell_Standalone_D2D.iUpf.dnPpp.ppp passedUpPk:sum(packetBytes) 0
scalar SingleCell_Standalone_D2D.iUpf.dnPpp.ppp packetDropIncorrectlyReceived:count 0
scalar SingleCell_Standalone_D2D.iUpf.dnPpp.ppp packetDropIncorrectlyReceived:sum(packetBytes) 0
scalar SingleCell_Standalone_D2D.iUpf.dnPpp.ppp packetDropInterfaceDown:count 0
scalar SingleCell_Standalone_D2D.iUpf.dnPpp.ppp packetDropInterfaceDown:sum(packetBytes) 0
scalar SingleCell_Standalone_D2D.iUpf.dnPpp packetDropInterfaceDown:count 0
scalar SingleCell_Standalone_D2D.iUpf.dnPpp packetDropInterfaceDown:sum(packetBytes) 0
scalar SingleCell_Standalone_D2D.iUpf.dnPpp packetDropNoCarrier:count 0
scalar SingleCell_Standalone_D2D.iUpf.dnPpp packetDropNoCarrier:sum(packetBytes) 0
scalar SingleCell_Standalone_D2D.gnb.cellularNic.rlcMux rlcCellThroughputD2D:simu5g_rateavg -nan
scalar SingleCell_Standalone_D2D.gnb.cellularNic.rlcMux rlcPduThroughputD2D:simu5g_rateavg -nan
scalar SingleCell_Standalone_D2D.gnb.cellularNic.rlcMux rlcPduDelayD2D:mean -nan
scalar SingleCell_Standalone_D2D.gnb.cellularNic.rlcMux rlcThroughputD2D:simu5g_rateavg -nan
scalar SingleCell_Standalone_D2D.gnb.cellularNic.rlcMux rlcDelayD2D:mean -nan
scalar SingleCell_Standalone_D2D.gnb.cellularNic.rlcMux rlcCellThroughputUl:simu5g_rateavg -nan
scalar SingleCell_Standalone_D2D.gnb.cellularNic.rlcMux rlcCellThroughputDl:simu5g_rateavg -nan
scalar SingleCell_Standalone_D2D.gnb.cellularNic.rlcMux rlcPduThroughputUl:simu5g_rateavg -nan
scalar SingleCell_Standalone_D2D.gnb.cellularNic.rlcMux rlcPduThroughputDl:simu5g_rateavg -nan
scalar SingleCell_Standalone_D2D.gnb.cellularNic.rlcMux rlcPduDelayUl:mean -nan
scalar SingleCell_Standalone_D2D.gnb.cellularNic.rlcMux rlcPduDelayDl:mean -nan
scalar SingleCell_Standalone_D2D.gnb.cellularNic.rlcMux rlcThroughputUl:simu5g_rateavg -nan
scalar SingleCell_Standalone_D2D.gnb.cellularNic.rlcMux rlcThroughputDl:simu5g_rateavg -nan
scalar SingleCell_Standalone_D2D.gnb.cellularNic.rlcMux rlcDelayUl:mean -nan
scalar SingleCell_Standalone_D2D.gnb.cellularNic.rlcMux rlcDelayDl:mean -nan
scalar SingleCell_Standalone_D2D.gnb.cellularNic.rlcMux sentPacketToLowerLayer:count 0
scalar SingleCell_Standalone_D2D.gnb.cellularNic.rlcMux sentPacketToLowerLayer:sum(packetBytes) 0
scalar SingleCell_Standalone_D2D.gnb.cellularNic.rlcMux receivedPacketFromLowerLayer:count 0
scalar SingleCell_Standalone_D2D.gnb.cellularNic.rlcMux receivedPacketFromLowerLayer:sum(packetBytes) 0
scalar SingleCell_Standalone_D2D.gnb.cellularNic.mac avgServedBlocksUl:mean 0
scalar SingleCell_Standalone_D2D.gnb.cellularNic.mac avgServedBlocksDl:mean 0
scalar SingleCell_Standalone_D2D.gnb.cellularNic.mac macCellPacketLossD2D:mean -nan
scalar SingleCell_Standalone_D2D.gnb.cellularNic.mac macCellThroughputD2D:simu5g_rateavg -nan
scalar SingleCell_Standalone_D2D.gnb.cellularNic.mac harqTxAttemptsUl:mean -nan
scalar SingleCell_Standalone_D2D.gnb.cellularNic.mac harqTxAttemptsDl:mean -nan
scalar SingleCell_Standalone_D2D.gnb.cellularNic.mac harqErrorRate_4th_Ul:mean -nan
scalar SingleCell_Standalone_D2D.gnb.cellularNic.mac harqErrorRate_4th_Dl:mean -nan
scalar SingleCell_Standalone_D2D.gnb.cellularNic.mac harqErrorRate_3rd_Ul:mean -nan
scalar SingleCell_Standalone_D2D.gnb.cellularNic.mac harqErrorRate_3rd_Dl:mean -nan
scalar SingleCell_Standalone_D2D.gnb.cellularNic.mac harqErrorRate_2nd_Ul:mean -nan
scalar SingleCell_Standalone_D2D.gnb.cellularNic.mac harqErrorRate_2nd_Dl:mean -nan
scalar SingleCell_Standalone_D2D.gnb.cellularNic.mac harqErrorRate_1st_Ul:mean -nan
scalar SingleCell_Standalone_D2D.gnb.cellularNic.mac harqErrorRate_1st_Dl:mean -nan
scalar SingleCell_Standalone_D2D.gnb.cellularNic.mac harqErrorRateUl:mean -nan
scalar SingleCell_Standalone_D2D.gnb.cellularNic.mac harqErrorRateDl:mean -nan
scalar SingleCell_Standalone_D2D.gnb.cellularNic.mac macCellPacketLossUl:mean -nan
scalar SingleCell_Standalone_D2D.gnb.cellularNic.mac macCellPacketLossDl:mean -nan
scalar SingleCell_Standalone_D2D.gnb.cellularNic.mac macPacketLossUl:mean -nan
scalar SingleCell_Standalone_D2D.gnb.cellularNic.mac macPacketLossDl:mean -nan
scalar SingleCell_Standalone_D2D.gnb.cellularNic.mac macThroughputUl:simu5g_rateavg -nan
scalar SingleCell_Standalone_D2D.gnb.cellularNic.mac macThroughputDl:simu5g_rateavg -nan
scalar SingleCell_Standalone_D2D.gnb.cellularNic.mac macDelayUl:mean -nan
scalar SingleCell_Standalone_D2D.gnb.cellularNic.mac macDelayDl:mean -nan
scalar SingleCell_Standalone_D2D.gnb.cellularNic.mac macCellThroughputUl:simu5g_rateavg -nan
scalar SingleCell_Standalone_D2D.gnb.cellularNic.mac macCellThroughputDl:simu5g_rateavg -nan
scalar SingleCell_Standalone_D2D.gnb.cellularNic.mac sentPacketToLowerLayer:count 0
scalar SingleCell_Standalone_D2D.gnb.cellularNic.mac sentPacketToLowerLayer:sum(packetBytes) 0
scalar SingleCell_Standalone_D2D.gnb.cellularNic.mac sentPacketToUpperLayer:count 0
scalar SingleCell_Standalone_D2D.gnb.cellularNic.mac sentPacketToUpperLayer:sum(packetBytes) 0
scalar SingleCell_Standalone_D2D.gnb.cellularNic.mac receivedPacketFromLowerLayer:count 33340
scalar SingleCell_Standalone_D2D.gnb.cellularNic.mac receivedPacketFromLowerLayer:sum(packetBytes) 33340
scalar SingleCell_Standalone_D2D.gnb.cellularNic.mac receivedPacketFromUpperLayer:count 0
scalar SingleCell_Standalone_D2D.gnb.cellularNic.mac receivedPacketFromUpperLayer:sum(packetBytes) 0
scalar SingleCell_Standalone_D2D.gnb.cellularNic.mac macBufferOverFlowD2D:mean -nan
scalar SingleCell_Standalone_D2D.gnb.cellularNic.mac macBufferOverFlowUl:mean -nan
scalar SingleCell_Standalone_D2D.gnb.cellularNic.mac macBufferOverFlowDl:mean -nan
scalar SingleCell_Standalone_D2D.gnb.cellularNic.channelModel[0] measuredSinrUl:mean -nan
scalar SingleCell_Standalone_D2D.gnb.cellularNic.channelModel[0] measuredSinrDl:mean -nan
scalar SingleCell_Standalone_D2D.gnb.cellularNic.channelModel[0] rcvdSinrD2D:mean -nan
scalar SingleCell_Standalone_D2D.gnb.cellularNic.channelModel[0] rcvdSinrUl:mean -nan
scalar SingleCell_Standalone_D2D.gnb.cellularNic.channelModel[0] rcvdSinrDl:mean -nan
scalar SingleCell_Standalone_D2D.gnb.cellularNic packetDropInterfaceDown:count 0
scalar SingleCell_Standalone_D2D.gnb.cellularNic packetDropInterfaceDown:sum(packetBytes) 0
scalar SingleCell_Standalone_D2D.gnb.cellularNic packetDropNoCarrier:count 0
scalar SingleCell_Standalone_D2D.gnb.cellularNic packetDropNoCarrier:sum(packetBytes) 0
scalar SingleCell_Standalone_D2D.gnb.pppIf.queue queueLength:last 0
scalar SingleCell_Standalone_D2D.gnb.pppIf.queue queueLength:max 0
scalar SingleCell_Standalone_D2D.gnb.pppIf.queue queueLength:timeavg 0
scalar SingleCell_Standalone_D2D.gnb.pppIf.queue queueBitLength:last 0
scalar SingleCell_Standalone_D2D.gnb.pppIf.queue queueBitLength:max 0
scalar SingleCell_Standalone_D2D.gnb.pppIf.queue queueBitLength:timeavg 0
scalar SingleCell_Standalone_D2D.gnb.pppIf.queue outgoingPackets:count 0
scalar SingleCell_Standalone_D2D.gnb.pppIf.queue outgoingPacketLengths:sum 0
scalar SingleCell_Standalone_D2D.gnb.pppIf.queue incomingPackets:count 0
scalar SingleCell_Standalone_D2D.gnb.pppIf.queue incomingPacketLengths:sum 0
scalar SingleCell_Standalone_D2D.gnb.pppIf.queue droppedPacketsQueueOverflow:count 0
scalar SingleCell_Standalone_D2D.gnb.pppIf.queue droppedPacketLengthsQueueOverflow:sum 0
scalar SingleCell_Standalone_D2D.gnb.pppIf.ppp transmissionState:timeavg 0
scalar SingleCell_Standalone_D2D.gnb.pppIf.ppp rxPkOk:count 0
scalar SingleCell_Standalone_D2D.gnb.pppIf.ppp rxPkOk:sum(packetBytes) 0
scalar SingleCell_Standalone_D2D.gnb.pppIf.ppp txPk:count 0
scalar SingleCell_Standalone_D2D.gnb.pppIf.ppp txPk:sum(packetBytes) 0
scalar SingleCell_Standalone_D2D.gnb.pppIf.ppp rcvdPkFromHl:count 0
scalar SingleCell_Standalone_D2D.gnb.pppIf.ppp rcvdPkFromHl:sum(packetBytes) 0
scalar SingleCell_Standalone_D2D.gnb.pppIf.ppp passedUpPk:count 0
scalar SingleCell_Standalone_D2D.gnb.pppIf.ppp passedUpPk:sum(packetBytes) 0
scalar SingleCell_Standalone_D2D.gnb.pppIf.ppp packetDropIncorrectlyReceived:count 0
scalar SingleCell_Standalone_D2D.gnb.pppIf.ppp packetDropIncorrectlyReceived:sum(packetBytes) 0
scalar SingleCell_Standalone_D2D.gnb.pppIf.ppp packetDropInterfaceDown:count 0
scalar SingleCell_Standalone_D2D.gnb.pppIf.ppp packetDropInterfaceDown:sum(packetBytes) 0
scalar SingleCell_Standalone_D2D.gnb.pppIf packetDropInterfaceDown:count 0
scalar SingleCell_Standalone_D2D.gnb.pppIf packetDropInterfaceDown:sum(packetBytes) 0
scalar SingleCell_Standalone_D2D.gnb.pppIf packetDropNoCarrier:count 0
scalar SingleCell_Standalone_D2D.gnb.pppIf packetDropNoCarrier:sum(packetBytes) 0
scalar SingleCell_Standalone_D2D.gnb.pppMEHostIf.queue queueLength:last 0
scalar SingleCell_Standalone_D2D.gnb.pppMEHostIf.queue queueLength:max 0
scalar SingleCell_Standalone_D2D.gnb.pppMEHostIf.queue queueLength:timeavg 0
scalar SingleCell_Standalone_D2D.gnb.pppMEHostIf.queue queueBitLength:last 0
scalar SingleCell_Standalone_D2D.gnb.pppMEHostIf.queue queueBitLength:max 0
scalar SingleCell_Standalone_D2D.gnb.pppMEHostIf.queue queueBitLength:timeavg 0
scalar SingleCell_Standalone_D2D.gnb.pppMEHostIf.queue outgoingPackets:count 0
scalar SingleCell_Standalone_D2D.gnb.pppMEHostIf.queue outgoingPacketLengths:sum 0
scalar SingleCell_Standalone_D2D.gnb.pppMEHostIf.queue incomingPackets:count 0
scalar SingleCell_Standalone_D2D.gnb.pppMEHostIf.queue incomingPacketLengths:sum 0
scalar SingleCell_Standalone_D2D.gnb.pppMEHostIf.queue droppedPacketsQueueOverflow:count 0
scalar SingleCell_Standalone_D2D.gnb.pppMEHostIf.queue droppedPacketLengthsQueueOverflow:sum 0
scalar SingleCell_Standalone_D2D.gnb.pppMEHostIf.ppp transmissionState:timeavg 0
scalar SingleCell_Standalone_D2D.gnb.pppMEHostIf.ppp rxPkOk:count 0
scalar SingleCell_Standalone_D2D.gnb.pppMEHostIf.ppp rxPkOk:sum(packetBytes) 0
scalar SingleCell_Standalone_D2D.gnb.pppMEHostIf.ppp txPk:count 0
scalar SingleCell_Standalone_D2D.gnb.pppMEHostIf.ppp txPk:sum(packetBytes) 0
scalar SingleCell_Standalone_D2D.gnb.pppMEHostIf.ppp rcvdPkFromHl:count 0
scalar SingleCell_Standalone_D2D.gnb.pppMEHostIf.ppp rcvdPkFromHl:sum(packetBytes) 0
scalar SingleCell_Standalone_D2D.gnb.pppMEHostIf.ppp passedUpPk:count 0
scalar SingleCell_Standalone_D2D.gnb.pppMEHostIf.ppp passedUpPk:sum(packetBytes) 0
scalar SingleCell_Standalone_D2D.gnb.pppMEHostIf.ppp packetDropIncorrectlyReceived:count 0
scalar SingleCell_Standalone_D2D.gnb.pppMEHostIf.ppp packetDropIncorrectlyReceived:sum(packetBytes) 0
scalar SingleCell_Standalone_D2D.gnb.pppMEHostIf.ppp packetDropInterfaceDown:count 0
scalar SingleCell_Standalone_D2D.gnb.pppMEHostIf.ppp packetDropInterfaceDown:sum(packetBytes) 0
scalar SingleCell_Standalone_D2D.gnb.pppMEHostIf packetDropInterfaceDown:count 0
scalar SingleCell_Standalone_D2D.gnb.pppMEHostIf packetDropInterfaceDown:sum(packetBytes) 0
scalar SingleCell_Standalone_D2D.gnb.pppMEHostIf packetDropNoCarrier:count 0
scalar SingleCell_Standalone_D2D.gnb.pppMEHostIf packetDropNoCarrier:sum(packetBytes) 0
scalar SingleCell_Standalone_D2D.gnb.ipv4.ip packetDropAddressResolutionFailed:count 0
scalar SingleCell_Standalone_D2D.gnb.ipv4.ip packetDropAddressResolutionFailed:sum(packetBytes) 0
scalar SingleCell_Standalone_D2D.gnb.ipv4.ip packetDropHopLimitReached:count 0
scalar SingleCell_Standalone_D2D.gnb.ipv4.ip packetDropHopLimitReached:sum(packetBytes) 0
scalar SingleCell_Standalone_D2D.gnb.ipv4.ip packetDropForwardingDisabled:count 0
scalar SingleCell_Standalone_D2D.gnb.ipv4.ip packetDropForwardingDisabled:sum(packetBytes) 0
scalar SingleCell_Standalone_D2D.gnb.ipv4.ip packetDropNoInterfaceFound:count 0
scalar SingleCell_Standalone_D2D.gnb.ipv4.ip packetDropNoInterfaceFound:sum(packetBytes) 0
scalar SingleCell_Standalone_D2D.gnb.ipv4.ip packetDropNoRouteFound:count 0
scalar SingleCell_Standalone_D2D.gnb.ipv4.ip packetDropNoRouteFound:sum(packetBytes) 0
scalar SingleCell_Standalone_D2D.gnb.ipv4.ip packetDropUndefined:count 0
scalar SingleCell_Standalone_D2D.gnb.ipv4.ip packetDropUndefined:sum(packetBytes) 0
scalar SingleCell_Standalone_D2D.gnb.ipv4.arp arpResolutionFailed:count 0
scalar SingleCell_Standalone_D2D.gnb.ipv4.arp arpResolutionCompleted:count 0
scalar SingleCell_Standalone_D2D.gnb.ipv4.arp arpResolutionInitiated:count 0
scalar SingleCell_Standalone_D2D.gnb.ipv4.arp arpReplySent:count 0
scalar SingleCell_Standalone_D2D.gnb.ipv4.arp arpReplySent:sum(packetBytes) 0
scalar SingleCell_Standalone_D2D.gnb.ipv4.arp arpRequestSent:count 0
scalar SingleCell_Standalone_D2D.gnb.ipv4.arp arpRequestSent:sum(packetBytes) 0
scalar SingleCell_Standalone_D2D.gnb.udp packetReceived:count 0
scalar SingleCell_Standalone_D2D.gnb.udp packetReceived:sum(packetBytes) 0
scalar SingleCell_Standalone_D2D.gnb.udp packetSent:count 0
scalar SingleCell_Standalone_D2D.gnb.udp packetSent:sum(packetBytes) 0
scalar SingleCell_Standalone_D2D.gnb.udp passedUpPk:count 0
scalar SingleCell_Standalone_D2D.gnb.udp droppedPkWrongPort:count 0
scalar SingleCell_Standalone_D2D.gnb.udp droppedPkBadChecksum:count 0
scalar SingleCell_Standalone_D2D.ueD2DTx[0].lo[0].lo rcvdPkFromHl:count 0
scalar SingleCell_Standalone_D2D.ueD2DTx[0].lo[0].lo rcvdPkFromHl:sum(packetBytes) 0
scalar SingleCell_Standalone_D2D.ueD2DTx[0].lo[0].lo passedUpPk:count 0
scalar SingleCell_Standalone_D2D.ueD2DTx[0].lo[0].lo passedUpPk:sum(packetBytes) 0
scalar SingleCell_Standalone_D2D.ueD2DTx[0].lo[0] packetDropInterfaceDown:count 0
scalar SingleCell_Standalone_D2D.ueD2DTx[0].lo[0] packetDropInterfaceDown:sum(packetBytes) 0
scalar SingleCell_Standalone_D2D.ueD2DTx[0].lo[0] packetDropNoCarrier:count 0
scalar SingleCell_Standalone_D2D.ueD2DTx[0].lo[0] packetDropNoCarrier:sum(packetBytes) 0
scalar SingleCell_Standalone_D2D.ueD2DTx[0].cellularNic.rlcMux rlcCellThroughputD2D:simu5g_rateavg -nan
scalar SingleCell_Standalone_D2D.ueD2DTx[0].cellularNic.rlcMux rlcPduThroughputD2D:simu5g_rateavg -nan
scalar SingleCell_Standalone_D2D.ueD2DTx[0].cellularNic.rlcMux rlcPduDelayD2D:mean -nan
scalar SingleCell_Standalone_D2D.ueD2DTx[0].cellularNic.rlcMux rlcThroughputD2D:simu5g_rateavg -nan
scalar SingleCell_Standalone_D2D.ueD2DTx[0].cellularNic.rlcMux rlcDelayD2D:mean -nan
scalar SingleCell_Standalone_D2D.ueD2DTx[0].cellularNic.rlcMux rlcCellThroughputUl:simu5g_rateavg -nan
scalar SingleCell_Standalone_D2D.ueD2DTx[0].cellularNic.rlcMux rlcCellThroughputDl:simu5g_rateavg -nan
scalar SingleCell_Standalone_D2D.ueD2DTx[0].cellularNic.rlcMux rlcPduThroughputUl:simu5g_rateavg -nan
scalar SingleCell_Standalone_D2D.ueD2DTx[0].cellularNic.rlcMux rlcPduThroughputDl:simu5g_rateavg -nan
scalar SingleCell_Standalone_D2D.ueD2DTx[0].cellularNic.rlcMux rlcPduDelayUl:mean -nan
scalar SingleCell_Standalone_D2D.ueD2DTx[0].cellularNic.rlcMux rlcPduDelayDl:mean -nan
scalar SingleCell_Standalone_D2D.ueD2DTx[0].cellularNic.rlcMux rlcThroughputUl:simu5g_rateavg -nan
scalar SingleCell_Standalone_D2D.ueD2DTx[0].cellularNic.rlcMux rlcThroughputDl:simu5g_rateavg -nan
scalar SingleCell_Standalone_D2D.ueD2DTx[0].cellularNic.rlcMux rlcDelayUl:mean -nan
scalar SingleCell_Standalone_D2D.ueD2DTx[0].cellularNic.rlcMux rlcDelayDl:mean -nan
scalar SingleCell_Standalone_D2D.ueD2DTx[0].cellularNic.rlcMux sentPacketToLowerLayer:count 0
scalar SingleCell_Standalone_D2D.ueD2DTx[0].cellularNic.rlcMux sentPacketToLowerLayer:sum(packetBytes) 0
scalar SingleCell_Standalone_D2D.ueD2DTx[0].cellularNic.rlcMux receivedPacketFromLowerLayer:count 0
scalar SingleCell_Standalone_D2D.ueD2DTx[0].cellularNic.rlcMux receivedPacketFromLowerLayer:sum(packetBytes) 0
scalar SingleCell_Standalone_D2D.ueD2DTx[0].cellularNic.mac harqErrorRate_4th_D2D:mean -nan
scalar SingleCell_Standalone_D2D.ueD2DTx[0].cellularNic.mac harqErrorRate_3rd_D2D:mean -nan
scalar SingleCell_Standalone_D2D.ueD2DTx[0].cellularNic.mac harqErrorRate_2nd_D2D:mean -nan
scalar SingleCell_Standalone_D2D.ueD2DTx[0].cellularNic.mac harqErrorRate_1st_D2D:mean -nan
scalar SingleCell_Standalone_D2D.ueD2DTx[0].cellularNic.mac harqErrorRateD2D:mean -nan
scalar SingleCell_Standalone_D2D.ueD2DTx[0].cellularNic.mac macPacketLossD2D:mean -nan
scalar SingleCell_Standalone_D2D.ueD2DTx[0].cellularNic.mac macDelayD2D:mean -nan
scalar SingleCell_Standalone_D2D.ueD2DTx[0].cellularNic.mac macThroughputD2D:simu5g_rateavg -nan
scalar SingleCell_Standalone_D2D.ueD2DTx[0].cellularNic.mac harqTxAttemptsUl:mean -nan
scalar SingleCell_Standalone_D2D.ueD2DTx[0].cellularNic.mac harqTxAttemptsDl:mean -nan
scalar SingleCell_Standalone_D2D.ueD2DTx[0].cellularNic.mac harqErrorRate_4th_Ul:mean -nan
scalar SingleCell_Standalone_D2D.ueD2DTx[0].cellularNic.mac harqErrorRate_4th_Dl:mean -nan
scalar SingleCell_Standalone_D2D.ueD2DTx[0].cellularNic.mac harqErrorRate_3rd_Ul:mean -nan
scalar SingleCell_Standalone_D2D.ueD2DTx[0].cellularNic.mac harqErrorRate_3rd_Dl:mean -nan
scalar SingleCell_Standalone_D2D.ueD2DTx[0].cellularNic.mac harqErrorRate_2nd_Ul:mean -nan
scalar SingleCell_Standalone_D2D.ueD2DTx[0].cellularNic.mac harqErrorRate_2nd_Dl:mean -nan
scalar SingleCell_Standalone_D2D.ueD2DTx[0].cellularNic.mac harqErrorRate_1st_Ul:mean -nan
scalar SingleCell_Standalone_D2D.ueD2DTx[0].cellularNic.mac harqErrorRate_1st_Dl:mean -nan
scalar SingleCell_Standalone_D2D.ueD2DTx[0].cellularNic.mac harqErrorRateUl:mean -nan
scalar SingleCell_Standalone_D2D.ueD2DTx[0].cellularNic.mac harqErrorRateDl:mean -nan
scalar SingleCell_Standalone_D2D.ueD2DTx[0].cellularNic.mac macCellPacketLossUl:mean -nan
scalar SingleCell_Standalone_D2D.ueD2DTx[0].cellularNic.mac macCellPacketLossDl:mean -nan
scalar SingleCell_Standalone_D2D.ueD2DTx[0].cellularNic.mac macPacketLossUl:mean -nan
scalar SingleCell_Standalone_D2D.ueD2DTx[0].cellularNic.mac macPacketLossDl:mean -nan
scalar SingleCell_Standalone_D2D.ueD2DTx[0].cellularNic.mac macThroughputUl:simu5g_rateavg -nan
scalar SingleCell_Standalone_D2D.ueD2DTx[0].cellularNic.mac macThroughputDl:simu5g_rateavg -nan
scalar SingleCell_Standalone_D2D.ueD2DTx[0].cellularNic.mac macDelayUl:mean -nan
scalar SingleCell_Standalone_D2D.ueD2DTx[0].cellularNic.mac macDelayDl:mean -nan
scalar SingleCell_Standalone_D2D.ueD2DTx[0].cellularNic.mac macCellThroughputUl:simu5g_rateavg -nan
scalar SingleCell_Standalone_D2D.ueD2DTx[0].cellularNic.mac macCellThroughputDl:simu5g_rateavg -nan
scalar SingleCell_Standalone_D2D.ueD2DTx[0].cellularNic.mac rcvdD2DModeSwitchNotification:count 0
scalar SingleCell_Standalone_D2D.ueD2DTx[0].cellularNic.mac sentPacketToLowerLayer:count 0
scalar SingleCell_Standalone_D2D.ueD2DTx[0].cellularNic.mac sentPacketToLowerLayer:sum(packetBytes) 0
scalar SingleCell_Standalone_D2D.ueD2DTx[0].cellularNic.mac sentPacketToUpperLayer:count 0
scalar SingleCell_Standalone_D2D.ueD2DTx[0].cellularNic.mac sentPacketToUpperLayer:sum(packetBytes) 0
scalar SingleCell_Standalone_D2D.ueD2DTx[0].cellularNic.mac receivedPacketFromLowerLayer:count 0
scalar SingleCell_Standalone_D2D.ueD2DTx[0].cellularNic.mac receivedPacketFromLowerLayer:sum(packetBytes) 0
scalar SingleCell_Standalone_D2D.ueD2DTx[0].cellularNic.mac receivedPacketFromUpperLayer:count 0
scalar SingleCell_Standalone_D2D.ueD2DTx[0].cellularNic.mac receivedPacketFromUpperLayer:sum(packetBytes) 0
scalar SingleCell_Standalone_D2D.ueD2DTx[0].cellularNic.mac macBufferOverFlowD2D:mean -nan
scalar SingleCell_Standalone_D2D.ueD2DTx[0].cellularNic.mac macBufferOverFlowUl:mean -nan
scalar SingleCell_Standalone_D2D.ueD2DTx[0].cellularNic.mac macBufferOverFlowDl:mean -nan
scalar SingleCell_Standalone_D2D.ueD2DTx[0].cellularNic.phy distance:mean -nan
scalar SingleCell_Standalone_D2D.ueD2DTx[0].cellularNic.phy averageCqiD2D:mean -nan
scalar SingleCell_Standalone_D2D.ueD2DTx[0].cellularNic.phy averageCqiUl:mean -nan
scalar SingleCell_Standalone_D2D.ueD2DTx[0].cellularNic.phy averageCqiUl:count 0
scalar SingleCell_Standalone_D2D.ueD2DTx[0].cellularNic.phy averageCqiDl:mean -nan
scalar SingleCell_Standalone_D2D.ueD2DTx[0].cellularNic.phy averageCqiDl:count 0
scalar SingleCell_Standalone_D2D.ueD2DTx[0].cellularNic.channelModel[0] measuredSinrUl:mean -nan
scalar SingleCell_Standalone_D2D.ueD2DTx[0].cellularNic.channelModel[0] measuredSinrDl:mean -nan
scalar SingleCell_Standalone_D2D.ueD2DTx[0].cellularNic.channelModel[0] rcvdSinrD2D:mean -nan
scalar SingleCell_Standalone_D2D.ueD2DTx[0].cellularNic.channelModel[0] rcvdSinrUl:mean -nan
scalar SingleCell_Standalone_D2D.ueD2DTx[0].cellularNic.channelModel[0] rcvdSinrDl:mean -nan
scalar SingleCell_Standalone_D2D.ueD2DTx[0].cellularNic.nrRlcMux rlcCellThroughputD2D:simu5g_rateavg -nan
scalar SingleCell_Standalone_D2D.ueD2DTx[0].cellularNic.nrRlcMux rlcPduThroughputD2D:simu5g_rateavg -nan
scalar SingleCell_Standalone_D2D.ueD2DTx[0].cellularNic.nrRlcMux rlcPduDelayD2D:mean -nan
scalar SingleCell_Standalone_D2D.ueD2DTx[0].cellularNic.nrRlcMux rlcThroughputD2D:simu5g_rateavg -nan
scalar SingleCell_Standalone_D2D.ueD2DTx[0].cellularNic.nrRlcMux rlcDelayD2D:mean -nan
scalar SingleCell_Standalone_D2D.ueD2DTx[0].cellularNic.nrRlcMux rlcCellThroughputUl:simu5g_rateavg -nan
scalar SingleCell_Standalone_D2D.ueD2DTx[0].cellularNic.nrRlcMux rlcCellThroughputDl:simu5g_rateavg -nan
scalar SingleCell_Standalone_D2D.ueD2DTx[0].cellularNic.nrRlcMux rlcPduThroughputUl:simu5g_rateavg -nan
scalar SingleCell_Standalone_D2D.ueD2DTx[0].cellularNic.nrRlcMux rlcPduThroughputDl:simu5g_rateavg -nan
scalar SingleCell_Standalone_D2D.ueD2DTx[0].cellularNic.nrRlcMux rlcPduDelayUl:mean -nan
scalar SingleCell_Standalone_D2D.ueD2DTx[0].cellularNic.nrRlcMux rlcPduDelayDl:mean -nan
scalar SingleCell_Standalone_D2D.ueD2DTx[0].cellularNic.nrRlcMux rlcThroughputUl:simu5g_rateavg -nan
scalar SingleCell_Standalone_D2D.ueD2DTx[0].cellularNic.nrRlcMux rlcThroughputDl:simu5g_rateavg -nan
scalar SingleCell_Standalone_D2D.ueD2DTx[0].cellularNic.nrRlcMux rlcDelayUl:mean -nan
scalar SingleCell_Standalone_D2D.ueD2DTx[0].cellularNic.nrRlcMux rlcDelayDl:mean -nan
scalar SingleCell_Standalone_D2D.ueD2DTx[0].cellularNic.nrRlcMux sentPacketToLowerLayer:count 0
scalar SingleCell_Standalone_D2D.ueD2DTx[0].cellularNic.nrRlcMux sentPacketToLowerLayer:sum(packetBytes) 0
scalar SingleCell_Standalone_D2D.ueD2DTx[0].cellularNic.nrRlcMux receivedPacketFromLowerLayer:count 0
scalar SingleCell_Standalone_D2D.ueD2DTx[0].cellularNic.nrRlcMux receivedPacketFromLowerLayer:sum(packetBytes) 0
scalar SingleCell_Standalone_D2D.ueD2DTx[0].cellularNic.nrMac harqErrorRate_4th_D2D:mean -nan
scalar SingleCell_Standalone_D2D.ueD2DTx[0].cellularNic.nrMac harqErrorRate_3rd_D2D:mean -nan
scalar SingleCell_Standalone_D2D.ueD2DTx[0].cellularNic.nrMac harqErrorRate_2nd_D2D:mean -nan
scalar SingleCell_Standalone_D2D.ueD2DTx[0].cellularNic.nrMac harqErrorRate_1st_D2D:mean -nan
scalar SingleCell_Standalone_D2D.ueD2DTx[0].cellularNic.nrMac harqErrorRateD2D:mean -nan
scalar SingleCell_Standalone_D2D.ueD2DTx[0].cellularNic.nrMac macPacketLossD2D:mean -nan
scalar SingleCell_Standalone_D2D.ueD2DTx[0].cellularNic.nrMac macDelayD2D:mean -nan
scalar SingleCell_Standalone_D2D.ueD2DTx[0].cellularNic.nrMac macThroughputD2D:simu5g_rateavg -nan
scalar SingleCell_Standalone_D2D.ueD2DTx[0].cellularNic.nrMac harqTxAttemptsUl:mean -nan
scalar SingleCell_Standalone_D2D.ueD2DTx[0].cellularNic.nrMac harqTxAttemptsDl:mean -nan
scalar SingleCell_Standalone_D2D.ueD2DTx[0].cellularNic.nrMac harqErrorRate_4th_Ul:mean -nan
scalar SingleCell_Standalone_D2D.ueD2DTx[0].cellularNic.nrMac harqErrorRate_4th_Dl:mean -nan
scalar SingleCell_Standalone_D2D.ueD2DTx[0].cellularNic.nrMac harqErrorRate_3rd_Ul:mean -nan
scalar SingleCell_Standalone_D2D.ueD2DTx[0].cellularNic.nrMac harqErrorRate_3rd_Dl:mean -nan
scalar SingleCell_Standalone_D2D.ueD2DTx[0].cellularNic.nrMac harqErrorRate_2nd_Ul:mean -nan
scalar SingleCell_Standalone_D2D.ueD2DTx[0].cellularNic.nrMac harqErrorRate_2nd_Dl:mean -nan
scalar SingleCell_Standalone_D2D.ueD2DTx[0].cellularNic.nrMac harqErrorRate_1st_Ul:mean -nan
scalar SingleCell_Standalone_D2D.ueD2DTx[0].cellularNic.nrMac harqErrorRate_1st_Dl:mean -nan
scalar SingleCell_Standalone_D2D.ueD2DTx[0].cellularNic.nrMac harqErrorRateUl:mean -nan
scalar SingleCell_Standalone_D2D.ueD2DTx[0].cellularNic.nrMac harqErrorRateDl:mean -nan
scalar SingleCell_Standalone_D2D.ueD2DTx[0].cellularNic.nrMac macCellPacketLossUl:mean -nan
scalar SingleCell_Standalone_D2D.ueD2DTx[0].cellularNic.nrMac macCellPacketLossDl:mean -nan
scalar SingleCell_Standalone_D2D.ueD2DTx[0].cellularNic.nrMac macPacketLossUl:mean -nan
scalar SingleCell_Standalone_D2D.ueD2DTx[0].cellularNic.nrMac macPacketLossDl:mean -nan
scalar SingleCell_Standalone_D2D.ueD2DTx[0].cellularNic.nrMac macThroughputUl:simu5g_rateavg -nan
scalar SingleCell_Standalone_D2D.ueD2DTx[0].cellularNic.nrMac macThroughputDl:simu5g_rateavg -nan
scalar SingleCell_Standalone_D2D.ueD2DTx[0].cellularNic.nrMac macDelayUl:mean -nan
scalar SingleCell_Standalone_D2D.ueD2DTx[0].cellularNic.nrMac macDelayDl:mean -nan
scalar SingleCell_Standalone_D2D.ueD2DTx[0].cellularNic.nrMac macCellThroughputUl:simu5g_rateavg -nan
scalar SingleCell_Standalone_D2D.ueD2DTx[0].cellularNic.nrMac macCellThroughputDl:simu5g_rateavg -nan
scalar SingleCell_Standalone_D2D.ueD2DTx[0].cellularNic.nrMac rcvdD2DModeSwitchNotification:count 0
scalar SingleCell_Standalone_D2D.ueD2DTx[0].cellularNic.nrMac sentPacketToLowerLayer:count 0
scalar SingleCell_Standalone_D2D.ueD2DTx[0].cellularNic.nrMac sentPacketToLowerLayer:sum(packetBytes) 0
scalar SingleCell_Standalone_D2D.ueD2DTx[0].cellularNic.nrMac sentPacketToUpperLayer:count 0
scalar SingleCell_Standalone_D2D.ueD2DTx[0].cellularNic.nrMac sentPacketToUpperLayer:sum(packetBytes) 0
scalar SingleCell_Standalone_D2D.ueD2DTx[0].cellularNic.nrMac receivedPacketFromLowerLayer:count 0
scalar SingleCell_Standalone_D2D.ueD2DTx[0].cellularNic.nrMac receivedPacketFromLowerLayer:sum(packetBytes) 0
scalar SingleCell_Standalone_D2D.ueD2DTx[0].cellularNic.nrMac receivedPacketFromUpperLayer:count 0
scalar SingleCell_Standalone_D2D.ueD2DTx[0].cellularNic.nrMac receivedPacketFromUpperLayer:sum(packetBytes) 0
scalar SingleCell_Standalone_D2D.ueD2DTx[0].cellularNic.nrMac macBufferOverFlowD2D:mean -nan
scalar SingleCell_Standalone_D2D.ueD2DTx[0].cellularNic.nrMac macBufferOverFlowUl:mean -nan
scalar SingleCell_Standalone_D2D.ueD2DTx[0].cellularNic.nrMac macBufferOverFlowDl:mean -nan
scalar SingleCell_Standalone_D2D.ueD2DTx[0].cellularNic.nrPhy distance:mean -nan
scalar SingleCell_Standalone_D2D.ueD2DTx[0].cellularNic.nrPhy averageCqiD2D:mean -nan
scalar SingleCell_Standalone_D2D.ueD2DTx[0].cellularNic.nrPhy averageCqiUl:mean -nan
scalar SingleCell_Standalone_D2D.ueD2DTx[0].cellularNic.nrPhy averageCqiUl:count 0
scalar SingleCell_Standalone_D2D.ueD2DTx[0].cellularNic.nrPhy averageCqiDl:mean -nan
scalar SingleCell_Standalone_D2D.ueD2DTx[0].cellularNic.nrPhy averageCqiDl:count 0
scalar SingleCell_Standalone_D2D.ueD2DTx[0].cellularNic.nrChannelModel[0] measuredSinrUl:mean 52.3602724525581
scalar SingleCell_Standalone_D2D.ueD2DTx[0].cellularNic.nrChannelModel[0] measuredSinrDl:mean 67.910119962820843
scalar SingleCell_Standalone_D2D.ueD2DTx[0].cellularNic.nrChannelModel[0] rcvdSinrD2D:mean -nan
scalar SingleCell_Standalone_D2D.ueD2DTx[0].cellularNic.nrChannelModel[0] rcvdSinrUl:mean -nan
scalar SingleCell_Standalone_D2D.ueD2DTx[0].cellularNic.nrChannelModel[0] rcvdSinrDl:mean -nan
scalar SingleCell_Standalone_D2D.ueD2DTx[0].cellularNic packetDropInterfaceDown:count 0
scalar SingleCell_Standalone_D2D.ueD2DTx[0].cellularNic packetDropInterfaceDown:sum(packetBytes) 0
scalar SingleCell_Standalone_D2D.ueD2DTx[0].cellularNic packetDropNoCarrier:count 0
scalar SingleCell_Standalone_D2D.ueD2DTx[0].cellularNic packetDropNoCarrier:sum(packetBytes) 0
scalar SingleCell_Standalone_D2D.ueD2DTx[0].encap pauseSent:count 0
scalar SingleCell_Standalone_D2D.ueD2DTx[0].encap pauseSent:sum 0
scalar SingleCell_Standalone_D2D.ueD2DTx[0].encap decapPk:count 0
scalar SingleCell_Standalone_D2D.ueD2DTx[0].encap decapPk:sum(packetBytes) 0
scalar SingleCell_Standalone_D2D.ueD2DTx[0].encap encapPk:count 0
scalar SingleCell_Standalone_D2D.ueD2DTx[0].encap encapPk:sum(packetBytes) 0
scalar SingleCell_Standalone_D2D.ueD2DTx[0].ipv4.ip packetDropAddressResolutionFailed:count 0
scalar SingleCell_Standalone_D2D.ueD2DTx[0].ipv4.ip packetDropAddressResolutionFailed:sum(packetBytes) 0
scalar SingleCell_Standalone_D2D.ueD2DTx[0].ipv4.ip packetDropHopLimitReached:count 0
scalar SingleCell_Standalone_D2D.ueD2DTx[0].ipv4.ip packetDropHopLimitReached:sum(packetBytes) 0
scalar SingleCell_Standalone_D2D.ueD2DTx[0].ipv4.ip packetDropForwardingDisabled:count 0
scalar SingleCell_Standalone_D2D.ueD2DTx[0].ipv4.ip packetDropForwardingDisabled:sum(packetBytes) 0
scalar SingleCell_Standalone_D2D.ueD2DTx[0].ipv4.ip packetDropNoInterfaceFound:count 0
scalar SingleCell_Standalone_D2D.ueD2DTx[0].ipv4.ip packetDropNoInterfaceFound:sum(packetBytes) 0
scalar SingleCell_Standalone_D2D.ueD2DTx[0].ipv4.ip packetDropNoRouteFound:count 0
scalar SingleCell_Standalone_D2D.ueD2DTx[0].ipv4.ip packetDropNoRouteFound:sum(packetBytes) 0
scalar SingleCell_Standalone_D2D.ueD2DTx[0].ipv4.ip packetDropUndefined:count 0
scalar SingleCell_Standalone_D2D.ueD2DTx[0].ipv4.ip packetDropUndefined:sum(packetBytes) 0
scalar SingleCell_Standalone_D2D.ueD2DTx[0].ipv4.arp arpResolutionFailed:count 0
scalar SingleCell_Standalone_D2D.ueD2DTx[0].ipv4.arp arpResolutionCompleted:count 0
scalar SingleCell_Standalone_D2D.ueD2DTx[0].ipv4.arp arpResolutionInitiated:count 0
scalar SingleCell_Standalone_D2D.ueD2DTx[0].ipv4.arp arpReplySent:count 0
scalar SingleCell_Standalone_D2D.ueD2DTx[0].ipv4.arp arpReplySent:sum(packetBytes) 0
scalar SingleCell_Standalone_D2D.ueD2DTx[0].ipv4.arp arpRequestSent:count 0
scalar SingleCell_Standalone_D2D.ueD2DTx[0].ipv4.arp arpRequestSent:sum(packetBytes) 0
scalar SingleCell_Standalone_D2D.ueD2DTx[0].udp packetReceived:count 0
scalar SingleCell_Standalone_D2D.ueD2DTx[0].udp packetReceived:sum(packetBytes) 0
scalar SingleCell_Standalone_D2D.ueD2DTx[0].udp packetSent:count 0
scalar SingleCell_Standalone_D2D.ueD2DTx[0].udp packetSent:sum(packetBytes) 0
scalar SingleCell_Standalone_D2D.ueD2DTx[0].udp passedUpPk:count 0
scalar SingleCell_Standalone_D2D.ueD2DTx[0].udp droppedPkWrongPort:count 0
scalar SingleCell_Standalone_D2D.ueD2DTx[0].udp droppedPkBadChecksum:count 0
scalar SingleCell_Standalone_D2D.ueD2DTx[1].lo[0].lo rcvdPkFromHl:count 0
scalar SingleCell_Standalone_D2D.ueD2DTx[1].lo[0].lo rcvdPkFromHl:sum(packetBytes) 0
scalar SingleCell_Standalone_D2D.ueD2DTx[1].lo[0].lo passedUpPk:count 0
scalar SingleCell_Standalone_D2D.ueD2DTx[1].lo[0].lo passedUpPk:sum(packetBytes) 0
scalar SingleCell_Standalone_D2D.ueD2DTx[1].lo[0] packetDropInterfaceDown:count 0
scalar SingleCell_Standalone_D2D.ueD2DTx[1].lo[0] packetDropInterfaceDown:sum(packetBytes) 0
scalar SingleCell_Standalone_D2D.ueD2DTx[1].lo[0] packetDropNoCarrier:count 0
scalar SingleCell_Standalone_D2D.ueD2DTx[1].lo[0] packetDropNoCarrier:sum(packetBytes) 0
scalar SingleCell_Standalone_D2D.ueD2DTx[1].cellularNic.rlcMux rlcCellThroughputD2D:simu5g_rateavg -nan
scalar SingleCell_Standalone_D2D.ueD2DTx[1].cellularNic.rlcMux rlcPduThroughputD2D:simu5g_rateavg -nan
scalar SingleCell_Standalone_D2D.ueD2DTx[1].cellularNic.rlcMux rlcPduDelayD2D:mean -nan
scalar SingleCell_Standalone_D2D.ueD2DTx[1].cellularNic.rlcMux rlcThroughputD2D:simu5g_rateavg -nan
scalar SingleCell_Standalone_D2D.ueD2DTx[1].cellularNic.rlcMux rlcDelayD2D:mean -nan
scalar SingleCell_Standalone_D2D.ueD2DTx[1].cellularNic.rlcMux rlcCellThroughputUl:simu5g_rateavg -nan
scalar SingleCell_Standalone_D2D.ueD2DTx[1].cellularNic.rlcMux rlcCellThroughputDl:simu5g_rateavg -nan
scalar SingleCell_Standalone_D2D.ueD2DTx[1].cellularNic.rlcMux rlcPduThroughputUl:simu5g_rateavg -nan
scalar SingleCell_Standalone_D2D.ueD2DTx[1].cellularNic.rlcMux rlcPduThroughputDl:simu5g_rateavg -nan
scalar SingleCell_Standalone_D2D.ueD2DTx[1].cellularNic.rlcMux rlcPduDelayUl:mean -nan
scalar SingleCell_Standalone_D2D.ueD2DTx[1].cellularNic.rlcMux rlcPduDelayDl:mean -nan
scalar SingleCell_Standalone_D2D.ueD2DTx[1].cellularNic.rlcMux rlcThroughputUl:simu5g_rateavg -nan
scalar SingleCell_Standalone_D2D.ueD2DTx[1].cellularNic.rlcMux rlcThroughputDl:simu5g_rateavg -nan
scalar SingleCell_Standalone_D2D.ueD2DTx[1].cellularNic.rlcMux rlcDelayUl:mean -nan
scalar SingleCell_Standalone_D2D.ueD2DTx[1].cellularNic.rlcMux rlcDelayDl:mean -nan
scalar SingleCell_Standalone_D2D.ueD2DTx[1].cellularNic.rlcMux sentPacketToLowerLayer:count 0
scalar SingleCell_Standalone_D2D.ueD2DTx[1].cellularNic.rlcMux sentPacketToLowerLayer:sum(packetBytes) 0
scalar SingleCell_Standalone_D2D.ueD2DTx[1].cellularNic.rlcMux receivedPacketFromLowerLayer:count 0
scalar SingleCell_Standalone_D2D.ueD2DTx[1].cellularNic.rlcMux receivedPacketFromLowerLayer:sum(packetBytes) 0
scalar SingleCell_Standalone_D2D.ueD2DTx[1].cellularNic.mac harqErrorRate_4th_D2D:mean -nan
scalar SingleCell_Standalone_D2D.ueD2DTx[1].cellularNic.mac harqErrorRate_3rd_D2D:mean -nan
scalar SingleCell_Standalone_D2D.ueD2DTx[1].cellularNic.mac harqErrorRate_2nd_D2D:mean -nan
scalar SingleCell_Standalone_D2D.ueD2DTx[1].cellularNic.mac harqErrorRate_1st_D2D:mean -nan
scalar SingleCell_Standalone_D2D.ueD2DTx[1].cellularNic.mac harqErrorRateD2D:mean -nan
scalar SingleCell_Standalone_D2D.ueD2DTx[1].cellularNic.mac macPacketLossD2D:mean -nan
scalar SingleCell_Standalone_D2D.ueD2DTx[1].cellularNic.mac macDelayD2D:mean -nan
scalar SingleCell_Standalone_D2D.ueD2DTx[1].cellularNic.mac macThroughputD2D:simu5g_rateavg -nan
scalar SingleCell_Standalone_D2D.ueD2DTx[1].cellularNic.mac harqTxAttemptsUl:mean -nan
scalar SingleCell_Standalone_D2D.ueD2DTx[1].cellularNic.mac harqTxAttemptsDl:mean -nan
scalar SingleCell_Standalone_D2D.ueD2DTx[1].cellularNic.mac harqErrorRate_4th_Ul:mean -nan
scalar SingleCell_Standalone_D2D.ueD2DTx[1].cellularNic.mac harqErrorRate_4th_Dl:mean -nan
scalar SingleCell_Standalone_D2D.ueD2DTx[1].cellularNic.mac harqErrorRate_3rd_Ul:mean -nan
scalar SingleCell_Standalone_D2D.ueD2DTx[1].cellularNic.mac harqErrorRate_3rd_Dl:mean -nan
scalar SingleCell_Standalone_D2D.ueD2DTx[1].cellularNic.mac harqErrorRate_2nd_Ul:mean -nan
scalar SingleCell_Standalone_D2D.ueD2DTx[1].cellularNic.mac harqErrorRate_2nd_Dl:mean -nan
scalar SingleCell_Standalone_D2D.ueD2DTx[1].cellularNic.mac harqErrorRate_1st_Ul:mean -nan
scalar SingleCell_Standalone_D2D.ueD2DTx[1].cellularNic.mac harqErrorRate_1st_Dl:mean -nan
scalar SingleCell_Standalone_D2D.ueD2DTx[1].cellularNic.mac harqErrorRateUl:mean -nan
scalar SingleCell_Standalone_D2D.ueD2DTx[1].cellularNic.mac harqErrorRateDl:mean -nan
scalar SingleCell_Standalone_D2D.ueD2DTx[1].cellularNic.mac macCellPacketLossUl:mean -nan
scalar SingleCell_Standalone_D2D.ueD2DTx[1].cellularNic.mac macCellPacketLossDl:mean -nan
scalar SingleCell_Standalone_D2D.ueD2DTx[1].cellularNic.mac macPacketLossUl:mean -nan
scalar SingleCell_Standalone_D2D.ueD2DTx[1].cellularNic.mac macPacketLossDl:mean -nan
scalar SingleCell_Standalone_D2D.ueD2DTx[1].cellularNic.mac macThroughputUl:simu5g_rateavg -nan
scalar SingleCell_Standalone_D2D.ueD2DTx[1].cellularNic.mac macThroughputDl:simu5g_rateavg -nan
scalar SingleCell_Standalone_D2D.ueD2DTx[1].cellularNic.mac macDelayUl:mean -nan
scalar SingleCell_Standalone_D2D.ueD2DTx[1].cellularNic.mac macDelayDl:mean -nan
scalar SingleCell_Standalone_D2D.ueD2DTx[1].cellularNic.mac macCellThroughputUl:simu5g_rateavg -nan
scalar SingleCell_Standalone_D2D.ueD2DTx[1].cellularNic.mac macCellThroughputDl:simu5g_rateavg -nan
scalar SingleCell_Standalone_D2D.ueD2DTx[1].cellularNic.mac rcvdD2DModeSwitchNotification:count 0
scalar SingleCell_Standalone_D2D.ueD2DTx[1].cellularNic.mac sentPacketToLowerLayer:count 0
scalar SingleCell_Standalone_D2D.ueD2DTx[1].cellularNic.mac sentPacketToLowerLayer:sum(packetBytes) 0
scalar SingleCell_Standalone_D2D.ueD2DTx[1].cellularNic.mac sentPacketToUpperLayer:count 0
scalar SingleCell_Standalone_D2D.ueD2DTx[1].cellularNic.mac sentPacketToUpperLayer:sum(packetBytes) 0
scalar SingleCell_Standalone_D2D.ueD2DTx[1].cellularNic.mac receivedPacketFromLowerLayer:count 0
scalar SingleCell_Standalone_D2D.ueD2DTx[1].cellularNic.mac receivedPacketFromLowerLayer:sum(packetBytes) 0
scalar SingleCell_Standalone_D2D.ueD2DTx[1].cellularNic.mac receivedPacketFromUpperLayer:count 0
scalar SingleCell_Standalone_D2D.ueD2DTx[1].cellularNic.mac receivedPacketFromUpperLayer:sum(packetBytes) 0
scalar SingleCell_Standalone_D2D.ueD2DTx[1].cellularNic.mac macBufferOverFlowD2D:mean -nan
scalar SingleCell_Standalone_D2D.ueD2DTx[1].cellularNic.mac macBufferOverFlowUl:mean -nan
scalar SingleCell_Standalone_D2D.ueD2DTx[1].cellularNic.mac macBufferOverFlowDl:mean -nan
scalar SingleCell_Standalone_D2D.ueD2DTx[1].cellularNic.phy distance:mean -nan
scalar SingleCell_Standalone_D2D.ueD2DTx[1].cellularNic.phy averageCqiD2D:mean -nan
scalar SingleCell_Standalone_D2D.ueD2DTx[1].cellularNic.phy averageCqiUl:mean -nan
scalar SingleCell_Standalone_D2D.ueD2DTx[1].cellularNic.phy averageCqiUl:count 0
scalar SingleCell_Standalone_D2D.ueD2DTx[1].cellularNic.phy averageCqiDl:mean -nan
scalar SingleCell_Standalone_D2D.ueD2DTx[1].cellularNic.phy averageCqiDl:count 0
scalar SingleCell_Standalone_D2D.ueD2DTx[1].cellularNic.channelModel[0] measuredSinrUl:mean -nan
scalar SingleCell_Standalone_D2D.ueD2DTx[1].cellularNic.channelModel[0] measuredSinrDl:mean -nan
scalar SingleCell_Standalone_D2D.ueD2DTx[1].cellularNic.channelModel[0] rcvdSinrD2D:mean -nan
scalar SingleCell_Standalone_D2D.ueD2DTx[1].cellularNic.channelModel[0] rcvdSinrUl:mean -nan
scalar SingleCell_Standalone_D2D.ueD2DTx[1].cellularNic.channelModel[0] rcvdSinrDl:mean -nan
scalar SingleCell_Standalone_D2D.ueD2DTx[1].cellularNic.nrRlcMux rlcCellThroughputD2D:simu5g_rateavg -nan
scalar SingleCell_Standalone_D2D.ueD2DTx[1].cellularNic.nrRlcMux rlcPduThroughputD2D:simu5g_rateavg -nan
scalar SingleCell_Standalone_D2D.ueD2DTx[1].cellularNic.nrRlcMux rlcPduDelayD2D:mean -nan
scalar SingleCell_Standalone_D2D.ueD2DTx[1].cellularNic.nrRlcMux rlcThroughputD2D:simu5g_rateavg -nan
scalar SingleCell_Standalone_D2D.ueD2DTx[1].cellularNic.nrRlcMux rlcDelayD2D:mean -nan
scalar SingleCell_Standalone_D2D.ueD2DTx[1].cellularNic.nrRlcMux rlcCellThroughputUl:simu5g_rateavg -nan
scalar SingleCell_Standalone_D2D.ueD2DTx[1].cellularNic.nrRlcMux rlcCellThroughputDl:simu5g_rateavg -nan
scalar SingleCell_Standalone_D2D.ueD2DTx[1].cellularNic.nrRlcMux rlcPduThroughputUl:simu5g_rateavg -nan
scalar SingleCell_Standalone_D2D.ueD2DTx[1].cellularNic.nrRlcMux rlcPduThroughputDl:simu5g_rateavg -nan
scalar SingleCell_Standalone_D2D.ueD2DTx[1].cellularNic.nrRlcMux rlcPduDelayUl:mean -nan
scalar SingleCell_Standalone_D2D.ueD2DTx[1].cellularNic.nrRlcMux rlcPduDelayDl:mean -nan
scalar SingleCell_Standalone_D2D.ueD2DTx[1].cellularNic.nrRlcMux rlcThroughputUl:simu5g_rateavg -nan
scalar SingleCell_Standalone_D2D.ueD2DTx[1].cellularNic.nrRlcMux rlcThroughputDl:simu5g_rateavg -nan
scalar SingleCell_Standalone_D2D.ueD2DTx[1].cellularNic.nrRlcMux rlcDelayUl:mean -nan
scalar SingleCell_Standalone_D2D.ueD2DTx[1].cellularNic.nrRlcMux rlcDelayDl:mean -nan
scalar SingleCell_Standalone_D2D.ueD2DTx[1].cellularNic.nrRlcMux sentPacketToLowerLayer:count 0
scalar SingleCell_Standalone_D2D.ueD2DTx[1].cellularNic.nrRlcMux sentPacketToLowerLayer:sum(packetBytes) 0
scalar SingleCell_Standalone_D2D.ueD2DTx[1].cellularNic.nrRlcMux receivedPacketFromLowerLayer:count 0
scalar SingleCell_Standalone_D2D.ueD2DTx[1].cellularNic.nrRlcMux receivedPacketFromLowerLayer:sum(packetBytes) 0
scalar SingleCell_Standalone_D2D.ueD2DTx[1].cellularNic.nrMac harqErrorRate_4th_D2D:mean -nan
scalar SingleCell_Standalone_D2D.ueD2DTx[1].cellularNic.nrMac harqErrorRate_3rd_D2D:mean -nan
scalar SingleCell_Standalone_D2D.ueD2DTx[1].cellularNic.nrMac harqErrorRate_2nd_D2D:mean -nan
scalar SingleCell_Standalone_D2D.ueD2DTx[1].cellularNic.nrMac harqErrorRate_1st_D2D:mean -nan
scalar SingleCell_Standalone_D2D.ueD2DTx[1].cellularNic.nrMac harqErrorRateD2D:mean -nan
scalar SingleCell_Standalone_D2D.ueD2DTx[1].cellularNic.nrMac macPacketLossD2D:mean -nan
scalar SingleCell_Standalone_D2D.ueD2DTx[1].cellularNic.nrMac macDelayD2D:mean -nan
scalar SingleCell_Standalone_D2D.ueD2DTx[1].cellularNic.nrMac macThroughputD2D:simu5g_rateavg -nan
scalar SingleCell_Standalone_D2D.ueD2DTx[1].cellularNic.nrMac harqTxAttemptsUl:mean -nan
scalar SingleCell_Standalone_D2D.ueD2DTx[1].cellularNic.nrMac harqTxAttemptsDl:mean -nan
scalar SingleCell_Standalone_D2D.ueD2DTx[1].cellularNic.nrMac harqErrorRate_4th_Ul:mean -nan
scalar SingleCell_Standalone_D2D.ueD2DTx[1].cellularNic.nrMac harqErrorRate_4th_Dl:mean -nan
scalar SingleCell_Standalone_D2D.ueD2DTx[1].cellularNic.nrMac harqErrorRate_3rd_Ul:mean -nan
scalar SingleCell_Standalone_D2D.ueD2DTx[1].cellularNic.nrMac harqErrorRate_3rd_Dl:mean -nan
scalar SingleCell_Standalone_D2D.ueD2DTx[1].cellularNic.nrMac harqErrorRate_2nd_Ul:mean -nan
scalar SingleCell_Standalone_D2D.ueD2DTx[1].cellularNic.nrMac harqErrorRate_2nd_Dl:mean -nan
scalar SingleCell_Standalone_D2D.ueD2DTx[1].cellularNic.nrMac harqErrorRate_1st_Ul:mean -nan
scalar SingleCell_Standalone_D2D.ueD2DTx[1].cellularNic.nrMac harqErrorRate_1st_Dl:mean -nan
scalar SingleCell_Standalone_D2D.ueD2DTx[1].cellularNic.nrMac harqErrorRateUl:mean -nan
scalar SingleCell_Standalone_D2D.ueD2DTx[1].cellularNic.nrMac harqErrorRateDl:mean -nan
scalar SingleCell_Standalone_D2D.ueD2DTx[1].cellularNic.nrMac macCellPacketLossUl:mean -nan
scalar SingleCell_Standalone_D2D.ueD2DTx[1].cellularNic.nrMac macCellPacketLossDl:mean -nan
scalar SingleCell_Standalone_D2D.ueD2DTx[1].cellularNic.nrMac macPacketLossUl:mean -nan
scalar SingleCell_Standalone_D2D.ueD2DTx[1].cellularNic.nrMac macPacketLossDl:mean -nan
scalar SingleCell_Standalone_D2D.ueD2DTx[1].cellularNic.nrMac macThroughputUl:simu5g_rateavg -nan
scalar SingleCell_Standalone_D2D.ueD2DTx[1].cellularNic.nrMac macThroughputDl:simu5g_rateavg -nan
scalar SingleCell_Standalone_D2D.ueD2DTx[1].cellularNic.nrMac macDelayUl:mean -nan
scalar SingleCell_Standalone_D2D.ueD2DTx[1].cellularNic.nrMac macDelayDl:mean -nan
scalar SingleCell_Standalone_D2D.ueD2DTx[1].cellularNic.nrMac macCellThroughputUl:simu5g_rateavg -nan
scalar SingleCell_Standalone_D2D.ueD2DTx[1].cellularNic.nrMac macCellThroughputDl:simu5g_rateavg -nan
scalar SingleCell_Standalone_D2D.ueD2DTx[1].cellularNic.nrMac rcvdD2DModeSwitchNotification:count 0
scalar SingleCell_Standalone_D2D.ueD2DTx[1].cellularNic.nrMac sentPacketToLowerLayer:count 0
scalar SingleCell_Standalone_D2D.ueD2DTx[1].cellularNic.nrMac sentPacketToLowerLayer:sum(packetBytes) 0
scalar SingleCell_Standalone_D2D.ueD2DTx[1].cellularNic.nrMac sentPacketToUpperLayer:count 0
scalar SingleCell_Standalone_D2D.ueD2DTx[1].cellularNic.nrMac sentPacketToUpperLayer:sum(packetBytes) 0
scalar SingleCell_Standalone_D2D.ueD2DTx[1].cellularNic.nrMac receivedPacketFromLowerLayer:count 0
scalar SingleCell_Standalone_D2D.ueD2DTx[1].cellularNic.nrMac receivedPacketFromLowerLayer:sum(packetBytes) 0
scalar SingleCell_Standalone_D2D.ueD2DTx[1].cellularNic.nrMac receivedPacketFromUpperLayer:count 0
scalar SingleCell_Standalone_D2D.ueD2DTx[1].cellularNic.nrMac receivedPacketFromUpperLayer:sum(packetBytes) 0
scalar SingleCell_Standalone_D2D.ueD2DTx[1].cellularNic.nrMac macBufferOverFlowD2D:mean -nan
scalar SingleCell_Standalone_D2D.ueD2DTx[1].cellularNic.nrMac macBufferOverFlowUl:mean -nan
scalar SingleCell_Standalone_D2D.ueD2DTx[1].cellularNic.nrMac macBufferOverFlowDl:mean -nan
scalar SingleCell_Standalone_D2D.ueD2DTx[1].cellularNic.nrPhy distance:mean -nan
scalar SingleCell_Standalone_D2D.ueD2DTx[1].cellularNic.nrPhy averageCqiD2D:mean -nan
scalar SingleCell_Standalone_D2D.ueD2DTx[1].cellularNic.nrPhy averageCqiUl:mean -nan
scalar SingleCell_Standalone_D2D.ueD2DTx[1].cellularNic.nrPhy averageCqiUl:count 0
scalar SingleCell_Standalone_D2D.ueD2DTx[1].cellularNic.nrPhy averageCqiDl:mean -nan
scalar SingleCell_Standalone_D2D.ueD2DTx[1].cellularNic.nrPhy averageCqiDl:count 0
scalar SingleCell_Standalone_D2D.ueD2DTx[1].cellularNic.nrChannelModel[0] measuredSinrUl:mean 54.624265068704808
scalar SingleCell_Standalone_D2D.ueD2DTx[1].cellularNic.nrChannelModel[0] measuredSinrDl:mean 64.930368406958351
scalar SingleCell_Standalone_D2D.ueD2DTx[1].cellularNic.nrChannelModel[0] rcvdSinrD2D:mean -nan
scalar SingleCell_Standalone_D2D.ueD2DTx[1].cellularNic.nrChannelModel[0] rcvdSinrUl:mean -nan
scalar SingleCell_Standalone_D2D.ueD2DTx[1].cellularNic.nrChannelModel[0] rcvdSinrDl:mean -nan
scalar SingleCell_Standalone_D2D.ueD2DTx[1].cellularNic packetDropInterfaceDown:count 0
scalar SingleCell_Standalone_D2D.ueD2DTx[1].cellularNic packetDropInterfaceDown:sum(packetBytes) 0
scalar SingleCell_Standalone_D2D.ueD2DTx[1].cellularNic packetDropNoCarrier:count 0
scalar SingleCell_Standalone_D2D.ueD2DTx[1].cellularNic packetDropNoCarrier:sum(packetBytes) 0
scalar SingleCell_Standalone_D2D.ueD2DTx[1].encap pauseSent:count 0
scalar SingleCell_Standalone_D2D.ueD2DTx[1].encap pauseSent:sum 0
scalar SingleCell_Standalone_D2D.ueD2DTx[1].encap decapPk:count 0
scalar SingleCell_Standalone_D2D.ueD2DTx[1].encap decapPk:sum(packetBytes) 0
scalar SingleCell_Standalone_D2D.ueD2DTx[1].encap encapPk:count 0
scalar SingleCell_Standalone_D2D.ueD2DTx[1].encap encapPk:sum(packetBytes) 0
scalar SingleCell_Standalone_D2D.ueD2DTx[1].ipv4.ip packetDropAddressResolutionFailed:count 0
scalar SingleCell_Standalone_D2D.ueD2DTx[1].ipv4.ip packetDropAddressResolutionFailed:sum(packetBytes) 0
scalar SingleCell_Standalone_D2D.ueD2DTx[1].ipv4.ip packetDropHopLimitReached:count 0
scalar SingleCell_Standalone_D2D.ueD2DTx[1].ipv4.ip packetDropHopLimitReached:sum(packetBytes) 0
scalar SingleCell_Standalone_D2D.ueD2DTx[1].ipv4.ip packetDropForwardingDisabled:count 0
scalar SingleCell_Standalone_D2D.ueD2DTx[1].ipv4.ip packetDropForwardingDisabled:sum(packetBytes) 0
scalar SingleCell_Standalone_D2D.ueD2DTx[1].ipv4.ip packetDropNoInterfaceFound:count 0
scalar SingleCell_Standalone_D2D.ueD2DTx[1].ipv4.ip packetDropNoInterfaceFound:sum(packetBytes) 0
scalar SingleCell_Standalone_D2D.ueD2DTx[1].ipv4.ip packetDropNoRouteFound:count 0
scalar SingleCell_Standalone_D2D.ueD2DTx[1].ipv4.ip packetDropNoRouteFound:sum(packetBytes) 0
scalar SingleCell_Standalone_D2D.ueD2DTx[1].ipv4.ip packetDropUndefined:count 0
scalar SingleCell_Standalone_D2D.ueD2DTx[1].ipv4.ip packetDropUndefined:sum(packetBytes) 0
scalar SingleCell_Standalone_D2D.ueD2DTx[1].ipv4.arp arpResolutionFailed:count 0
scalar SingleCell_Standalone_D2D.ueD2DTx[1].ipv4.arp arpResolutionCompleted:count 0
scalar SingleCell_Standalone_D2D.ueD2DTx[1].ipv4.arp arpResolutionInitiated:count 0
scalar SingleCell_Standalone_D2D.ueD2DTx[1].ipv4.arp arpReplySent:count 0
scalar SingleCell_Standalone_D2D.ueD2DTx[1].ipv4.arp arpReplySent:sum(packetBytes) 0
scalar SingleCell_Standalone_D2D.ueD2DTx[1].ipv4.arp arpRequestSent:count 0
scalar SingleCell_Standalone_D2D.ueD2DTx[1].ipv4.arp arpRequestSent:sum(packetBytes) 0
scalar SingleCell_Standalone_D2D.ueD2DTx[1].udp packetReceived:count 0
scalar SingleCell_Standalone_D2D.ueD2DTx[1].udp packetReceived:sum(packetBytes) 0
scalar SingleCell_Standalone_D2D.ueD2DTx[1].udp packetSent:count 0
scalar SingleCell_Standalone_D2D.ueD2DTx[1].udp packetSent:sum(packetBytes) 0
scalar SingleCell_Standalone_D2D.ueD2DTx[1].udp passedUpPk:count 0
scalar SingleCell_Standalone_D2D.ueD2DTx[1].udp droppedPkWrongPort:count 0
scalar SingleCell_Standalone_D2D.ueD2DTx[1].udp droppedPkBadChecksum:count 0
scalar SingleCell_Standalone_D2D.ueD2DTx[2].lo[0].lo rcvdPkFromHl:count 0
scalar SingleCell_Standalone_D2D.ueD2DTx[2].lo[0].lo rcvdPkFromHl:sum(packetBytes) 0
scalar SingleCell_Standalone_D2D.ueD2DTx[2].lo[0].lo passedUpPk:count 0
scalar SingleCell_Standalone_D2D.ueD2DTx[2].lo[0].lo passedUpPk:sum(packetBytes) 0
scalar SingleCell_Standalone_D2D.ueD2DTx[2].lo[0] packetDropInterfaceDown:count 0
scalar SingleCell_Standalone_D2D.ueD2DTx[2].lo[0] packetDropInterfaceDown:sum(packetBytes) 0
scalar SingleCell_Standalone_D2D.ueD2DTx[2].lo[0] packetDropNoCarrier:count 0
scalar SingleCell_Standalone_D2D.ueD2DTx[2].lo[0] packetDropNoCarrier:sum(packetBytes) 0
scalar SingleCell_Standalone_D2D.ueD2DTx[2].cellularNic.rlcMux rlcCellThroughputD2D:simu5g_rateavg -nan
scalar SingleCell_Standalone_D2D.ueD2DTx[2].cellularNic.rlcMux rlcPduThroughputD2D:simu5g_rateavg -nan
scalar SingleCell_Standalone_D2D.ueD2DTx[2].cellularNic.rlcMux rlcPduDelayD2D:mean -nan
scalar SingleCell_Standalone_D2D.ueD2DTx[2].cellularNic.rlcMux rlcThroughputD2D:simu5g_rateavg -nan
scalar SingleCell_Standalone_D2D.ueD2DTx[2].cellularNic.rlcMux rlcDelayD2D:mean -nan
scalar SingleCell_Standalone_D2D.ueD2DTx[2].cellularNic.rlcMux rlcCellThroughputUl:simu5g_rateavg -nan
scalar SingleCell_Standalone_D2D.ueD2DTx[2].cellularNic.rlcMux rlcCellThroughputDl:simu5g_rateavg -nan
scalar SingleCell_Standalone_D2D.ueD2DTx[2].cellularNic.rlcMux rlcPduThroughputUl:simu5g_rateavg -nan
scalar SingleCell_Standalone_D2D.ueD2DTx[2].cellularNic.rlcMux rlcPduThroughputDl:simu5g_rateavg -nan
scalar SingleCell_Standalone_D2D.ueD2DTx[2].cellularNic.rlcMux rlcPduDelayUl:mean -nan
scalar SingleCell_Standalone_D2D.ueD2DTx[2].cellularNic.rlcMux rlcPduDelayDl:mean -nan
scalar SingleCell_Standalone_D2D.ueD2DTx[2].cellularNic.rlcMux rlcThroughputUl:simu5g_rateavg -nan
scalar SingleCell_Standalone_D2D.ueD2DTx[2].cellularNic.rlcMux rlcThroughputDl:simu5g_rateavg -nan
scalar SingleCell_Standalone_D2D.ueD2DTx[2].cellularNic.rlcMux rlcDelayUl:mean -nan
scalar SingleCell_Standalone_D2D.ueD2DTx[2].cellularNic.rlcMux rlcDelayDl:mean -nan
scalar SingleCell_Standalone_D2D.ueD2DTx[2].cellularNic.rlcMux sentPacketToLowerLayer:count 0
scalar SingleCell_Standalone_D2D.ueD2DTx[2].cellularNic.rlcMux sentPacketToLowerLayer:sum(packetBytes) 0
scalar SingleCell_Standalone_D2D.ueD2DTx[2].cellularNic.rlcMux receivedPacketFromLowerLayer:count 0
scalar SingleCell_Standalone_D2D.ueD2DTx[2].cellularNic.rlcMux receivedPacketFromLowerLayer:sum(packetBytes) 0
scalar SingleCell_Standalone_D2D.ueD2DTx[2].cellularNic.mac harqErrorRate_4th_D2D:mean -nan
scalar SingleCell_Standalone_D2D.ueD2DTx[2].cellularNic.mac harqErrorRate_3rd_D2D:mean -nan
scalar SingleCell_Standalone_D2D.ueD2DTx[2].cellularNic.mac harqErrorRate_2nd_D2D:mean -nan
scalar SingleCell_Standalone_D2D.ueD2DTx[2].cellularNic.mac harqErrorRate_1st_D2D:mean -nan
scalar SingleCell_Standalone_D2D.ueD2DTx[2].cellularNic.mac harqErrorRateD2D:mean -nan
scalar SingleCell_Standalone_D2D.ueD2DTx[2].cellularNic.mac macPacketLossD2D:mean -nan
scalar SingleCell_Standalone_D2D.ueD2DTx[2].cellularNic.mac macDelayD2D:mean -nan
scalar SingleCell_Standalone_D2D.ueD2DTx[2].cellularNic.mac macThroughputD2D:simu5g_rateavg -nan
[...]
scalar SingleCell_Standalone_D2D.ueD2DRx[4].cellularNic.nrChannelModel[0] rcvdSinrDl:vector:max -inf
scalar SingleCell_Standalone_D2D.ueD2DRx[4].cellularNic.nrChannelModel[0] rcvdSinrDl:vector:starttime nan
scalar SingleCell_Standalone_D2D.ueD2DRx[4].cellularNic.nrChannelModel[0] rcvdSinrDl:vector:endtime nan
scalar SingleCell_Standalone_D2D.ueD2DRx[4].cellularNic.nrChannelModel[0] rcvdSinrUl:vector:count 0
scalar SingleCell_Standalone_D2D.ueD2DRx[4].cellularNic.nrChannelModel[0] rcvdSinrUl:vector:sum 0
scalar SingleCell_Standalone_D2D.ueD2DRx[4].cellularNic.nrChannelModel[0] rcvdSinrUl:vector:sumweights 0
scalar SingleCell_Standalone_D2D.ueD2DRx[4].cellularNic.nrChannelModel[0] rcvdSinrUl:vector:mean -nan
scalar SingleCell_Standalone_D2D.ueD2DRx[4].cellularNic.nrChannelModel[0] rcvdSinrUl:vector:stddev nan
scalar SingleCell_Standalone_D2D.ueD2DRx[4].cellularNic.nrChannelModel[0] rcvdSinrUl:vector:min inf
scalar SingleCell_Standalone_D2D.ueD2DRx[4].cellularNic.nrChannelModel[0] rcvdSinrUl:vector:max -inf
scalar SingleCell_Standalone_D2D.ueD2DRx[4].cellularNic.nrChannelModel[0] rcvdSinrUl:vector:starttime nan
scalar SingleCell_Standalone_D2D.ueD2DRx[4].cellularNic.nrChannelModel[0] rcvdSinrUl:vector:endtime nan
scalar SingleCell_Standalone_D2D.ueD2DRx[4].cellularNic.nrChannelModel[0] rcvdSinrD2D:vector:count 0
scalar SingleCell_Standalone_D2D.ueD2DRx[4].cellularNic.nrChannelModel[0] rcvdSinrD2D:vector:sum 0
scalar SingleCell_Standalone_D2D.ueD2DRx[4].cellularNic.nrChannelModel[0] rcvdSinrD2D:vector:sumweights 0
scalar SingleCell_Standalone_D2D.ueD2DRx[4].cellularNic.nrChannelModel[0] rcvdSinrD2D:vector:mean -nan
scalar SingleCell_Standalone_D2D.ueD2DRx[4].cellularNic.nrChannelModel[0] rcvdSinrD2D:vector:stddev nan
scalar SingleCell_Standalone_D2D.ueD2DRx[4].cellularNic.nrChannelModel[0] rcvdSinrD2D:vector:min inf
scalar SingleCell_Standalone_D2D.ueD2DRx[4].cellularNic.nrChannelModel[0] rcvdSinrD2D:vector:max -inf
scalar SingleCell_Standalone_D2D.ueD2DRx[4].cellularNic.nrChannelModel[0] rcvdSinrD2D:vector:starttime nan
scalar SingleCell_Standalone_D2D.ueD2DRx[4].cellularNic.nrChannelModel[0] rcvdSinrD2D:vector:endtime nan
scalar SingleCell_Standalone_D2D.ueD2DRx[4].cellularNic.nrChannelModel[0] measuredSinrDl:vector:count 0
scalar SingleCell_Standalone_D2D.ueD2DRx[4].cellularNic.nrChannelModel[0] measuredSinrDl:vector:sum 0
scalar SingleCell_Standalone_D2D.ueD2DRx[4].cellularNic.nrChannelModel[0] measuredSinrDl:vector:sumweights 0
scalar SingleCell_Standalone_D2D.ueD2DRx[4].cellularNic.nrChannelModel[0] measuredSinrDl:vector:mean -nan
scalar SingleCell_Standalone_D2D.ueD2DRx[4].cellularNic.nrChannelModel[0] measuredSinrDl:vector:stddev nan
scalar SingleCell_Standalone_D2D.ueD2DRx[4].cellularNic.nrChannelModel[0] measuredSinrDl:vector:min inf
scalar SingleCell_Standalone_D2D.ueD2DRx[4].cellularNic.nrChannelModel[0] measuredSinrDl:vector:max -inf
scalar SingleCell_Standalone_D2D.ueD2DRx[4].cellularNic.nrChannelModel[0] measuredSinrDl:vector:starttime nan
scalar SingleCell_Standalone_D2D.ueD2DRx[4].cellularNic.nrChannelModel[0] measuredSinrDl:vector:endtime nan
scalar SingleCell_Standalone_D2D.ueD2DRx[4].cellularNic.nrChannelModel[0] measuredSinrUl:vector:count 0
scalar SingleCell_Standalone_D2D.ueD2DRx[4].cellularNic.nrChannelModel[0] measuredSinrUl:vector:sum 0
scalar SingleCell_Standalone_D2D.ueD2DRx[4].cellularNic.nrChannelModel[0] measuredSinrUl:vector:sumweights 0
scalar SingleCell_Standalone_D2D.ueD2DRx[4].cellularNic.nrChannelModel[0] measuredSinrUl:vector:mean -nan
scalar SingleCell_Standalone_D2D.ueD2DRx[4].cellularNic.nrChannelModel[0] measuredSinrUl:vector:stddev nan
scalar SingleCell_Standalone_D2D.ueD2DRx[4].cellularNic.nrChannelModel[0] measuredSinrUl:vector:min inf
scalar SingleCell_Standalone_D2D.ueD2DRx[4].cellularNic.nrChannelModel[0] measuredSinrUl:vector:max -inf
scalar SingleCell_Standalone_D2D.ueD2DRx[4].cellularNic.nrChannelModel[0] measuredSinrUl:vector:starttime nan
scalar SingleCell_Standalone_D2D.ueD2DRx[4].cellularNic.nrChannelModel[0] measuredSinrUl:vector:endtime nan
scalar SingleCell_Standalone_D2D.ueD2DRx[4].cellularNic packetDropInterfaceDown:vector(packetBytes):count 0
scalar SingleCell_Standalone_D2D.ueD2DRx[4].cellularNic packetDropInterfaceDown:vector(packetBytes):sum 0
scalar SingleCell_Standalone_D2D.ueD2DRx[4].cellularNic packetDropInterfaceDown:vector(packetBytes):sumweights 0
scalar SingleCell_Standalone_D2D.ueD2DRx[4].cellularNic packetDropInterfaceDown:vector(packetBytes):mean -nan
scalar SingleCell_Standalone_D2D.ueD2DRx[4].cellularNic packetDropInterfaceDown:vector(packetBytes):stddev nan
scalar SingleCell_Standalone_D2D.ueD2DRx[4].cellularNic packetDropInterfaceDown:vector(packetBytes):min inf
scalar SingleCell_Standalone_D2D.ueD2DRx[4].cellularNic packetDropInterfaceDown:vector(packetBytes):max -inf
scalar SingleCell_Standalone_D2D.ueD2DRx[4].cellularNic packetDropInterfaceDown:vector(packetBytes):starttime nan
scalar SingleCell_Standalone_D2D.ueD2DRx[4].cellularNic packetDropInterfaceDown:vector(packetBytes):endtime nan
scalar SingleCell_Standalone_D2D.ueD2DRx[4].cellularNic packetDropNoCarrier:vector(packetBytes):count 0
scalar SingleCell_Standalone_D2D.ueD2DRx[4].cellularNic packetDropNoCarrier:vector(packetBytes):sum 0
scalar SingleCell_Standalone_D2D.ueD2DRx[4].cellularNic packetDropNoCarrier:vector(packetBytes):sumweights 0
scalar SingleCell_Standalone_D2D.ueD2DRx[4].cellularNic packetDropNoCarrier:vector(packetBytes):mean -nan
scalar SingleCell_Standalone_D2D.ueD2DRx[4].cellularNic packetDropNoCarrier:vector(packetBytes):stddev nan
scalar SingleCell_Standalone_D2D.ueD2DRx[4].cellularNic packetDropNoCarrier:vector(packetBytes):min inf
scalar SingleCell_Standalone_D2D.ueD2DRx[4].cellularNic packetDropNoCarrier:vector(packetBytes):max -inf
scalar SingleCell_Standalone_D2D.ueD2DRx[4].cellularNic packetDropNoCarrier:vector(packetBytes):starttime nan
scalar SingleCell_Standalone_D2D.ueD2DRx[4].cellularNic packetDropNoCarrier:vector(packetBytes):endtime nan
scalar SingleCell_Standalone_D2D.ueD2DRx[4].encap encapPk:vector(packetBytes):count 0
scalar SingleCell_Standalone_D2D.ueD2DRx[4].encap encapPk:vector(packetBytes):sum 0
scalar SingleCell_Standalone_D2D.ueD2DRx[4].encap encapPk:vector(packetBytes):sumweights 0
scalar SingleCell_Standalone_D2D.ueD2DRx[4].encap encapPk:vector(packetBytes):mean -nan
scalar SingleCell_Standalone_D2D.ueD2DRx[4].encap encapPk:vector(packetBytes):stddev nan
scalar SingleCell_Standalone_D2D.ueD2DRx[4].encap encapPk:vector(packetBytes):min inf
scalar SingleCell_Standalone_D2D.ueD2DRx[4].encap encapPk:vector(packetBytes):max -inf
scalar SingleCell_Standalone_D2D.ueD2DRx[4].encap encapPk:vector(packetBytes):starttime nan
scalar SingleCell_Standalone_D2D.ueD2DRx[4].encap encapPk:vector(packetBytes):endtime nan
scalar SingleCell_Standalone_D2D.ueD2DRx[4].encap decapPk:vector(packetBytes):count 0
scalar SingleCell_Standalone_D2D.ueD2DRx[4].encap decapPk:vector(packetBytes):sum 0
scalar SingleCell_Standalone_D2D.ueD2DRx[4].encap decapPk:vector(packetBytes):sumweights 0
scalar SingleCell_Standalone_D2D.ueD2DRx[4].encap decapPk:vector(packetBytes):mean -nan
scalar SingleCell_Standalone_D2D.ueD2DRx[4].encap decapPk:vector(packetBytes):stddev nan
scalar SingleCell_Standalone_D2D.ueD2DRx[4].encap decapPk:vector(packetBytes):min inf
scalar SingleCell_Standalone_D2D.ueD2DRx[4].encap decapPk:vector(packetBytes):max -inf
scalar SingleCell_Standalone_D2D.ueD2DRx[4].encap decapPk:vector(packetBytes):starttime nan
scalar SingleCell_Standalone_D2D.ueD2DRx[4].encap decapPk:vector(packetBytes):endtime nan
scalar SingleCell_Standalone_D2D.ueD2DRx[4].encap pauseSent:vector:count 0
scalar SingleCell_Standalone_D2D.ueD2DRx[4].encap pauseSent:vector:sum 0
scalar SingleCell_Standalone_D2D.ueD2DRx[4].encap pauseSent:vector:sumweights 0
scalar SingleCell_Standalone_D2D.ueD2DRx[4].encap pauseSent:vector:mean -nan
scalar SingleCell_Standalone_D2D.ueD2DRx[4].encap pauseSent:vector:stddev nan
scalar SingleCell_Standalone_D2D.ueD2DRx[4].encap pauseSent:vector:min inf
scalar SingleCell_Standalone_D2D.ueD2DRx[4].encap pauseSent:vector:max -inf
scalar SingleCell_Standalone_D2D.ueD2DRx[4].encap pauseSent:vector:starttime nan
scalar SingleCell_Standalone_D2D.ueD2DRx[4].encap pauseSent:vector:endtime nan
scalar SingleCell_Standalone_D2D.ueD2DRx[4].ipv4.ip packetDropAddressResolutionFailed:vector(packetBytes):count 0
scalar SingleCell_Standalone_D2D.ueD2DRx[4].ipv4.ip packetDropAddressResolutionFailed:vector(packetBytes):sum 0
scalar SingleCell_Standalone_D2D.ueD2DRx[4].ipv4.ip packetDropAddressResolutionFailed:vector(packetBytes):sumweights 0
scalar SingleCell_Standalone_D2D.ueD2DRx[4].ipv4.ip packetDropAddressResolutionFailed:vector(packetBytes):mean -nan
scalar SingleCell_Standalone_D2D.ueD2DRx[4].ipv4.ip packetDropAddressResolutionFailed:vector(packetBytes):stddev nan
scalar SingleCell_Standalone_D2D.ueD2DRx[4].ipv4.ip packetDropAddressResolutionFailed:vector(packetBytes):min inf
scalar SingleCell_Standalone_D2D.ueD2DRx[4].ipv4.ip packetDropAddressResolutionFailed:vector(packetBytes):max -inf
scalar SingleCell_Standalone_D2D.ueD2DRx[4].ipv4.ip packetDropAddressResolutionFailed:vector(packetBytes):starttime nan
scalar SingleCell_Standalone_D2D.ueD2DRx[4].ipv4.ip packetDropAddressResolutionFailed:vector(packetBytes):endtime nan
scalar SingleCell_Standalone_D2D.ueD2DRx[4].ipv4.ip packetDropHopLimitReached:vector(packetBytes):count 0
scalar SingleCell_Standalone_D2D.ueD2DRx[4].ipv4.ip packetDropHopLimitReached:vector(packetBytes):sum 0
scalar SingleCell_Standalone_D2D.ueD2DRx[4].ipv4.ip packetDropHopLimitReached:vector(packetBytes):sumweights 0
scalar SingleCell_Standalone_D2D.ueD2DRx[4].ipv4.ip packetDropHopLimitReached:vector(packetBytes):mean -nan
scalar SingleCell_Standalone_D2D.ueD2DRx[4].ipv4.ip packetDropHopLimitReached:vector(packetBytes):stddev nan
scalar SingleCell_Standalone_D2D.ueD2DRx[4].ipv4.ip packetDropHopLimitReached:vector(packetBytes):min inf
scalar SingleCell_Standalone_D2D.ueD2DRx[4].ipv4.ip packetDropHopLimitReached:vector(packetBytes):max -inf
scalar SingleCell_Standalone_D2D.ueD2DRx[4].ipv4.ip packetDropHopLimitReached:vector(packetBytes):starttime nan
scalar SingleCell_Standalone_D2D.ueD2DRx[4].ipv4.ip packetDropHopLimitReached:vector(packetBytes):endtime nan
scalar SingleCell_Standalone_D2D.ueD2DRx[4].ipv4.ip packetDropForwardingDisabled:vector(packetBytes):count 0
scalar SingleCell_Standalone_D2D.ueD2DRx[4].ipv4.ip packetDropForwardingDisabled:vector(packetBytes):sum 0
scalar SingleCell_Standalone_D2D.ueD2DRx[4].ipv4.ip packetDropForwardingDisabled:vector(packetBytes):sumweights 0
scalar SingleCell_Standalone_D2D.ueD2DRx[4].ipv4.ip packetDropForwardingDisabled:vector(packetBytes):mean -nan
scalar SingleCell_Standalone_D2D.ueD2DRx[4].ipv4.ip packetDropForwardingDisabled:vector(packetBytes):stddev nan
scalar SingleCell_Standalone_D2D.ueD2DRx[4].ipv4.ip packetDropForwardingDisabled:vector(packetBytes):min inf
scalar SingleCell_Standalone_D2D.ueD2DRx[4].ipv4.ip packetDropForwardingDisabled:vector(packetBytes):max -inf
scalar SingleCell_Standalone_D2D.ueD2DRx[4].ipv4.ip packetDropForwardingDisabled:vector(packetBytes):starttime nan
scalar SingleCell_Standalone_D2D.ueD2DRx[4].ipv4.ip packetDropForwardingDisabled:vector(packetBytes):endtime nan
scalar SingleCell_Standalone_D2D.ueD2DRx[4].ipv4.ip packetDropNoInterfaceFound:vector(packetBytes):count 0
scalar SingleCell_Standalone_D2D.ueD2DRx[4].ipv4.ip packetDropNoInterfaceFound:vector(packetBytes):sum 0
scalar SingleCell_Standalone_D2D.ueD2DRx[4].ipv4.ip packetDropNoInterfaceFound:vector(packetBytes):sumweights 0
scalar SingleCell_Standalone_D2D.ueD2DRx[4].ipv4.ip packetDropNoInterfaceFound:vector(packetBytes):mean -nan
scalar SingleCell_Standalone_D2D.ueD2DRx[4].ipv4.ip packetDropNoInterfaceFound:vector(packetBytes):stddev nan
scalar SingleCell_Standalone_D2D.ueD2DRx[4].ipv4.ip packetDropNoInterfaceFound:vector(packetBytes):min inf
scalar SingleCell_Standalone_D2D.ueD2DRx[4].ipv4.ip packetDropNoInterfaceFound:vector(packetBytes):max -inf
scalar SingleCell_Standalone_D2D.ueD2DRx[4].ipv4.ip packetDropNoInterfaceFound:vector(packetBytes):starttime nan
scalar SingleCell_Standalone_D2D.ueD2DRx[4].ipv4.ip packetDropNoInterfaceFound:vector(packetBytes):endtime nan
scalar SingleCell_Standalone_D2D.ueD2DRx[4].ipv4.ip packetDropNoRouteFound:vector(packetBytes):count 0
scalar SingleCell_Standalone_D2D.ueD2DRx[4].ipv4.ip packetDropNoRouteFound:vector(packetBytes):sum 0
scalar SingleCell_Standalone_D2D.ueD2DRx[4].ipv4.ip packetDropNoRouteFound:vector(packetBytes):sumweights 0
scalar SingleCell_Standalone_D2D.ueD2DRx[4].ipv4.ip packetDropNoRouteFound:vector(packetBytes):mean -nan
scalar SingleCell_Standalone_D2D.ueD2DRx[4].ipv4.ip packetDropNoRouteFound:vector(packetBytes):stddev nan
scalar SingleCell_Standalone_D2D.ueD2DRx[4].ipv4.ip packetDropNoRouteFound:vector(packetBytes):min inf
scalar SingleCell_Standalone_D2D.ueD2DRx[4].ipv4.ip packetDropNoRouteFound:vector(packetBytes):max -inf
scalar SingleCell_Standalone_D2D.ueD2DRx[4].ipv4.ip packetDropNoRouteFound:vector(packetBytes):starttime nan
scalar SingleCell_Standalone_D2D.ueD2DRx[4].ipv4.ip packetDropNoRouteFound:vector(packetBytes):endtime nan
scalar SingleCell_Standalone_D2D.ueD2DRx[4].ipv4.ip packetDropUndefined:vector(packetBytes):count 0
scalar SingleCell_Standalone_D2D.ueD2DRx[4].ipv4.ip packetDropUndefined:vector(packetBytes):sum 0
scalar SingleCell_Standalone_D2D.ueD2DRx[4].ipv4.ip packetDropUndefined:vector(packetBytes):sumweights 0
scalar SingleCell_Standalone_D2D.ueD2DRx[4].ipv4.ip packetDropUndefined:vector(packetBytes):mean -nan
scalar SingleCell_Standalone_D2D.ueD2DRx[4].ipv4.ip packetDropUndefined:vector(packetBytes):stddev nan
scalar SingleCell_Standalone_D2D.ueD2DRx[4].ipv4.ip packetDropUndefined:vector(packetBytes):min inf
scalar SingleCell_Standalone_D2D.ueD2DRx[4].ipv4.ip packetDropUndefined:vector(packetBytes):max -inf
scalar SingleCell_Standalone_D2D.ueD2DRx[4].ipv4.ip packetDropUndefined:vector(packetBytes):starttime nan
scalar SingleCell_Standalone_D2D.ueD2DRx[4].ipv4.ip packetDropUndefined:vector(packetBytes):endtime nan
scalar SingleCell_Standalone_D2D.ueD2DRx[4].ipv4.arp arpRequestSent:vector(packetBytes):count 0
scalar SingleCell_Standalone_D2D.ueD2DRx[4].ipv4.arp arpRequestSent:vector(packetBytes):sum 0
scalar SingleCell_Standalone_D2D.ueD2DRx[4].ipv4.arp arpRequestSent:vector(packetBytes):sumweights 0
scalar SingleCell_Standalone_D2D.ueD2DRx[4].ipv4.arp arpRequestSent:vector(packetBytes):mean -nan
scalar SingleCell_Standalone_D2D.ueD2DRx[4].ipv4.arp arpRequestSent:vector(packetBytes):stddev nan
scalar SingleCell_Standalone_D2D.ueD2DRx[4].ipv4.arp arpRequestSent:vector(packetBytes):min inf
scalar SingleCell_Standalone_D2D.ueD2DRx[4].ipv4.arp arpRequestSent:vector(packetBytes):max -inf
scalar SingleCell_Standalone_D2D.ueD2DRx[4].ipv4.arp arpRequestSent:vector(packetBytes):starttime nan
scalar SingleCell_Standalone_D2D.ueD2DRx[4].ipv4.arp arpRequestSent:vector(packetBytes):endtime nan
scalar SingleCell_Standalone_D2D.ueD2DRx[4].ipv4.arp arpReplySent:vector(packetBytes):count 0
scalar SingleCell_Standalone_D2D.ueD2DRx[4].ipv4.arp arpReplySent:vector(packetBytes):sum 0
scalar SingleCell_Standalone_D2D.ueD2DRx[4].ipv4.arp arpReplySent:vector(packetBytes):sumweights 0
scalar SingleCell_Standalone_D2D.ueD2DRx[4].ipv4.arp arpReplySent:vector(packetBytes):mean -nan
scalar SingleCell_Standalone_D2D.ueD2DRx[4].ipv4.arp arpReplySent:vector(packetBytes):stddev nan
scalar SingleCell_Standalone_D2D.ueD2DRx[4].ipv4.arp arpReplySent:vector(packetBytes):min inf
scalar SingleCell_Standalone_D2D.ueD2DRx[4].ipv4.arp arpReplySent:vector(packetBytes):max -inf
scalar SingleCell_Standalone_D2D.ueD2DRx[4].ipv4.arp arpReplySent:vector(packetBytes):starttime nan
scalar SingleCell_Standalone_D2D.ueD2DRx[4].ipv4.arp arpReplySent:vector(packetBytes):endtime nan
scalar SingleCell_Standalone_D2D.ueD2DRx[4].udp packetSent:vector(packetBytes):count 0
scalar SingleCell_Standalone_D2D.ueD2DRx[4].udp packetSent:vector(packetBytes):sum 0
scalar SingleCell_Standalone_D2D.ueD2DRx[4].udp packetSent:vector(packetBytes):sumweights 0
scalar SingleCell_Standalone_D2D.ueD2DRx[4].udp packetSent:vector(packetBytes):mean -nan
scalar SingleCell_Standalone_D2D.ueD2DRx[4].udp packetSent:vector(packetBytes):stddev nan
scalar SingleCell_Standalone_D2D.ueD2DRx[4].udp packetSent:vector(packetBytes):min inf
scalar SingleCell_Standalone_D2D.ueD2DRx[4].udp packetSent:vector(packetBytes):max -inf
scalar SingleCell_Standalone_D2D.ueD2DRx[4].udp packetSent:vector(packetBytes):starttime nan
scalar SingleCell_Standalone_D2D.ueD2DRx[4].udp packetSent:vector(packetBytes):endtime nan
scalar SingleCell_Standalone_D2D.ueD2DRx[4].udp packetReceived:vector(packetBytes):count 0
scalar SingleCell_Standalone_D2D.ueD2DRx[4].udp packetReceived:vector(packetBytes):sum 0
scalar SingleCell_Standalone_D2D.ueD2DRx[4].udp packetReceived:vector(packetBytes):sumweights 0
scalar SingleCell_Standalone_D2D.ueD2DRx[4].udp packetReceived:vector(packetBytes):mean -nan
scalar SingleCell_Standalone_D2D.ueD2DRx[4].udp packetReceived:vector(packetBytes):stddev nan
scalar SingleCell_Standalone_D2D.ueD2DRx[4].udp packetReceived:vector(packetBytes):min inf
scalar SingleCell_Standalone_D2D.ueD2DRx[4].udp packetReceived:vector(packetBytes):max -inf
scalar SingleCell_Standalone_D2D.ueD2DRx[4].udp packetReceived:vector(packetBytes):starttime nan
scalar SingleCell_Standalone_D2D.ueD2DRx[4].udp packetReceived:vector(packetBytes):endtime nan
scalar SingleCell_Standalone_D2D.ueD2DRx[4].udp passedUpPk:vector(count):count 0
scalar SingleCell_Standalone_D2D.ueD2DRx[4].udp passedUpPk:vector(count):sum 0
scalar SingleCell_Standalone_D2D.ueD2DRx[4].udp passedUpPk:vector(count):sumweights 0
scalar SingleCell_Standalone_D2D.ueD2DRx[4].udp passedUpPk:vector(count):mean -nan
scalar SingleCell_Standalone_D2D.ueD2DRx[4].udp passedUpPk:vector(count):stddev nan
scalar SingleCell_Standalone_D2D.ueD2DRx[4].udp passedUpPk:vector(count):min inf
scalar SingleCell_Standalone_D2D.ueD2DRx[4].udp passedUpPk:vector(count):max -inf
scalar SingleCell_Standalone_D2D.ueD2DRx[4].udp passedUpPk:vector(count):starttime nan
scalar SingleCell_Standalone_D2D.ueD2DRx[4].udp passedUpPk:vector(count):endtime nan
scalar SingleCell_Standalone_D2D.ueD2DRx[4].udp droppedPkWrongPort:vector(count):count 0
scalar SingleCell_Standalone_D2D.ueD2DRx[4].udp droppedPkWrongPort:vector(count):sum 0
scalar SingleCell_Standalone_D2D.ueD2DRx[4].udp droppedPkWrongPort:vector(count):sumweights 0
scalar SingleCell_Standalone_D2D.ueD2DRx[4].udp droppedPkWrongPort:vector(count):mean -nan
scalar SingleCell_Standalone_D2D.ueD2DRx[4].udp droppedPkWrongPort:vector(count):stddev nan
scalar SingleCell_Standalone_D2D.ueD2DRx[4].udp droppedPkWrongPort:vector(count):min inf
scalar SingleCell_Standalone_D2D.ueD2DRx[4].udp droppedPkWrongPort:vector(count):max -inf
scalar SingleCell_Standalone_D2D.ueD2DRx[4].udp droppedPkWrongPort:vector(count):starttime nan
scalar SingleCell_Standalone_D2D.ueD2DRx[4].udp droppedPkWrongPort:vector(count):endtime nan
scalar SingleCell_Standalone_D2D.ueD2DRx[4].udp droppedPkBadChecksum:vector(count):count 0
scalar SingleCell_Standalone_D2D.ueD2DRx[4].udp droppedPkBadChecksum:vector(count):sum 0
scalar SingleCell_Standalone_D2D.ueD2DRx[4].udp droppedPkBadChecksum:vector(count):sumweights 0
scalar SingleCell_Standalone_D2D.ueD2DRx[4].udp droppedPkBadChecksum:vector(count):mean -nan
scalar SingleCell_Standalone_D2D.ueD2DRx[4].udp droppedPkBadChecksum:vector(count):stddev nan
scalar SingleCell_Standalone_D2D.ueD2DRx[4].udp droppedPkBadChecksum:vector(count):min inf
scalar SingleCell_Standalone_D2D.ueD2DRx[4].udp droppedPkBadChecksum:vector(count):max -inf
scalar SingleCell_Standalone_D2D.ueD2DRx[4].udp droppedPkBadChecksum:vector(count):starttime nan
scalar SingleCell_Standalone_D2D.ueD2DRx[4].udp droppedPkBadChecksum:vector(count):endtime nan

