version 3
run SinglePair-TCP-Infra-0-20260709-21:31:12-651509
attr configname SinglePair-TCP-Infra
attr datetime 20260709-21:31:12
attr datetimef 20260709-213112
attr experiment SinglePair-TCP-Infra
attr inifile omnetpp.ini
attr iterationvars ""
attr iterationvarsd ""
attr iterationvarsf ""
attr measurement ""
attr network simu5g.simulations.nr.networks.SingleCell_Standalone_D2D
attr processid 651509
attr repetition 0
attr replication #0
attr resultdir results
attr runnumber 0
attr seedset 0
config **.param-recording false
config image-path /home/andras/projects/Simu5G-fork/simu5g-fork/images
config output-scalar-file results/omnetpp.ini-SinglePair-TCP-Infra-#0.sca
config output-scalar-precision 17
config output-vector-file results/omnetpp.ini-SinglePair-TCP-Infra-#0.vec
config output-vector-precision 17
config record-eventlog false
config sim-time-limit 20s
config extends SinglePair
config **.vector-recording true
config *.ueD2D*[0].numApps 1
config *.ueD2DTx[0].app[*].typename TcpSessionApp
config *.ueD2DTx[0].app[0].connectPort 1000
config *.ueD2DTx[0].app[*].localPort 1000
config *.ueD2DTx[0].app[*].sendBytes 1GiB
config *.ueD2DTx[0].app[0].active true
config *.ueD2DTx[0].app[0].tOpen uniform(0.010s,0.1s)
config *.ueD2DTx[0].app[0].tSend uniform(0.15s,0.5s)
config *.ueD2DTx[0].app[0].connectAddress "\"ueD2DRx[0]\""
config *.ueD2DTx[0].app[0].localAddress "\"ueD2DTx[0]\""
config *.ueD2DRx[0].app[*].typename TcpSinkApp
config *.ueD2DRx[0].app[*].localPort 1000
config **.app[*].tClose -1s
config network simu5g.simulations.nr.networks.SingleCell_Standalone_D2D
config *.gnb.mobility.initialX 300m
config *.gnb.mobility.initialY 300m
config *.numUeCell 0
config *.numUeD2DTx 1
config *.numUeD2DRx 1
config *.ue*[*].macCellId 0
config *.ue*[*].masterId 0
config *.ue*[*].nrMacCellId 1
config *.ue*[*].nrMasterId 1
config *.ueD2DTx[0].mobility.initialX 290m
config *.ueD2DTx[0].mobility.initialY 350m
config *.ueD2DRx[0].mobility.initialX 310m
config *.ueD2DRx[0].mobility.initialY 350m
config sim-time-limit 20s
config warmup-period 0s
config repeat 3
config **.routingRecorder.enabled false
config output-scalar-file results/SinglePair-TCP-Infra/0.sca
config output-vector-file results/SinglePair-TCP-Infra/0.vec
config seed-set 0
config **.vector-recording false
config **.mobility.constraintAreaMaxX 1000m
config **.mobility.constraintAreaMaxY 1000m
config **.mobility.constraintAreaMinX 0m
config **.mobility.constraintAreaMinY 0m
config **.mobility.constraintAreaMinZ 0m
config **.mobility.constraintAreaMaxZ 0m
config **.mobility.initFromDisplayString false
config **.numBands 50
config **.ueTxPower 26dBm
config **.eNodeBTxPower 40dBm
config **.targetBler 0.01
config **.blerShift 5
config *.configurator.config "xmldoc(\"./demo.xml\")"

scalar SingleCell_Standalone_D2D.server.lo[0].lo rcvdPkFromHl:count 0
scalar SingleCell_Standalone_D2D.server.lo[0].lo rcvdPkFromHl:sum(packetBytes) 0
scalar SingleCell_Standalone_D2D.server.lo[0].lo passedUpPk:count 0
scalar SingleCell_Standalone_D2D.server.lo[0].lo passedUpPk:sum(packetBytes) 0
scalar SingleCell_Standalone_D2D.server.lo[0] packetDropInterfaceDown:count 0
scalar SingleCell_Standalone_D2D.server.lo[0] packetDropInterfaceDown:sum(packetBytes) 0
scalar SingleCell_Standalone_D2D.server.lo[0] packetDropNoCarrier:count 0
scalar SingleCell_Standalone_D2D.server.lo[0] packetDropNoCarrier:sum(packetBytes) 0
scalar SingleCell_Standalone_D2D.server.ppp[0].queue queueLength:last 0
scalar SingleCell_Standalone_D2D.server.ppp[0].queue queueLength:max 0
scalar SingleCell_Standalone_D2D.server.ppp[0].queue queueLength:timeavg 0
scalar SingleCell_Standalone_D2D.server.ppp[0].queue queueBitLength:last 0
scalar SingleCell_Standalone_D2D.server.ppp[0].queue queueBitLength:max 0
scalar SingleCell_Standalone_D2D.server.ppp[0].queue queueBitLength:timeavg 0
scalar SingleCell_Standalone_D2D.server.ppp[0].queue outgoingPackets:count 0
scalar SingleCell_Standalone_D2D.server.ppp[0].queue outgoingPacketLengths:sum 0
scalar SingleCell_Standalone_D2D.server.ppp[0].queue incomingPackets:count 0
scalar SingleCell_Standalone_D2D.server.ppp[0].queue incomingPacketLengths:sum 0
scalar SingleCell_Standalone_D2D.server.ppp[0].queue droppedPacketsQueueOverflow:count 0
scalar SingleCell_Standalone_D2D.server.ppp[0].queue droppedPacketLengthsQueueOverflow:sum 0
scalar SingleCell_Standalone_D2D.server.ppp[0].ppp transmissionState:timeavg 0
scalar SingleCell_Standalone_D2D.server.ppp[0].ppp rxPkOk:count 0
scalar SingleCell_Standalone_D2D.server.ppp[0].ppp rxPkOk:sum(packetBytes) 0
scalar SingleCell_Standalone_D2D.server.ppp[0].ppp txPk:count 0
scalar SingleCell_Standalone_D2D.server.ppp[0].ppp txPk:sum(packetBytes) 0
scalar SingleCell_Standalone_D2D.server.ppp[0].ppp rcvdPkFromHl:count 0
scalar SingleCell_Standalone_D2D.server.ppp[0].ppp rcvdPkFromHl:sum(packetBytes) 0
scalar SingleCell_Standalone_D2D.server.ppp[0].ppp passedUpPk:count 0
scalar SingleCell_Standalone_D2D.server.ppp[0].ppp passedUpPk:sum(packetBytes) 0
scalar SingleCell_Standalone_D2D.server.ppp[0].ppp packetDropIncorrectlyReceived:count 0
scalar SingleCell_Standalone_D2D.server.ppp[0].ppp packetDropIncorrectlyReceived:sum(packetBytes) 0
scalar SingleCell_Standalone_D2D.server.ppp[0].ppp packetDropInterfaceDown:count 0
scalar SingleCell_Standalone_D2D.server.ppp[0].ppp packetDropInterfaceDown:sum(packetBytes) 0
scalar SingleCell_Standalone_D2D.server.ppp[0] packetDropInterfaceDown:count 0
scalar SingleCell_Standalone_D2D.server.ppp[0] packetDropInterfaceDown:sum(packetBytes) 0
scalar SingleCell_Standalone_D2D.server.ppp[0] packetDropNoCarrier:count 0
scalar SingleCell_Standalone_D2D.server.ppp[0] packetDropNoCarrier:sum(packetBytes) 0
scalar SingleCell_Standalone_D2D.server.ipv4.ip packetDropAddressResolutionFailed:count 0
scalar SingleCell_Standalone_D2D.server.ipv4.ip packetDropAddressResolutionFailed:sum(packetBytes) 0
scalar SingleCell_Standalone_D2D.server.ipv4.ip packetDropHopLimitReached:count 0
scalar SingleCell_Standalone_D2D.server.ipv4.ip packetDropHopLimitReached:sum(packetBytes) 0
scalar SingleCell_Standalone_D2D.server.ipv4.ip packetDropForwardingDisabled:count 0
scalar SingleCell_Standalone_D2D.server.ipv4.ip packetDropForwardingDisabled:sum(packetBytes) 0
scalar SingleCell_Standalone_D2D.server.ipv4.ip packetDropNoInterfaceFound:count 0
scalar SingleCell_Standalone_D2D.server.ipv4.ip packetDropNoInterfaceFound:sum(packetBytes) 0
scalar SingleCell_Standalone_D2D.server.ipv4.ip packetDropNoRouteFound:count 0
scalar SingleCell_Standalone_D2D.server.ipv4.ip packetDropNoRouteFound:sum(packetBytes) 0
scalar SingleCell_Standalone_D2D.server.ipv4.ip packetDropUndefined:count 0
scalar SingleCell_Standalone_D2D.server.ipv4.ip packetDropUndefined:sum(packetBytes) 0
scalar SingleCell_Standalone_D2D.server.ipv4.arp arpResolutionFailed:count 0
scalar SingleCell_Standalone_D2D.server.ipv4.arp arpResolutionCompleted:count 0
scalar SingleCell_Standalone_D2D.server.ipv4.arp arpResolutionInitiated:count 0
scalar SingleCell_Standalone_D2D.server.ipv4.arp arpReplySent:count 0
scalar SingleCell_Standalone_D2D.server.ipv4.arp arpReplySent:sum(packetBytes) 0
scalar SingleCell_Standalone_D2D.server.ipv4.arp arpRequestSent:count 0
scalar SingleCell_Standalone_D2D.server.ipv4.arp arpRequestSent:sum(packetBytes) 0
scalar SingleCell_Standalone_D2D.server.udp packetReceived:count 0
scalar SingleCell_Standalone_D2D.server.udp packetReceived:sum(packetBytes) 0
scalar SingleCell_Standalone_D2D.server.udp packetSent:count 0
scalar SingleCell_Standalone_D2D.server.udp packetSent:sum(packetBytes) 0
scalar SingleCell_Standalone_D2D.server.udp passedUpPk:count 0
scalar SingleCell_Standalone_D2D.server.udp droppedPkWrongPort:count 0
scalar SingleCell_Standalone_D2D.server.udp droppedPkBadChecksum:count 0
scalar SingleCell_Standalone_D2D.router.lo[0].lo rcvdPkFromHl:count 0
scalar SingleCell_Standalone_D2D.router.lo[0].lo rcvdPkFromHl:sum(packetBytes) 0
scalar SingleCell_Standalone_D2D.router.lo[0].lo passedUpPk:count 0
scalar SingleCell_Standalone_D2D.router.lo[0].lo passedUpPk:sum(packetBytes) 0
scalar SingleCell_Standalone_D2D.router.lo[0] packetDropInterfaceDown:count 0
scalar SingleCell_Standalone_D2D.router.lo[0] packetDropInterfaceDown:sum(packetBytes) 0
scalar SingleCell_Standalone_D2D.router.lo[0] packetDropNoCarrier:count 0
scalar SingleCell_Standalone_D2D.router.lo[0] packetDropNoCarrier:sum(packetBytes) 0
scalar SingleCell_Standalone_D2D.router.ppp[0].queue queueLength:last 0
scalar SingleCell_Standalone_D2D.router.ppp[0].queue queueLength:max 0
scalar SingleCell_Standalone_D2D.router.ppp[0].queue queueLength:timeavg 0
scalar SingleCell_Standalone_D2D.router.ppp[0].queue queueBitLength:last 0
scalar SingleCell_Standalone_D2D.router.ppp[0].queue queueBitLength:max 0
scalar SingleCell_Standalone_D2D.router.ppp[0].queue queueBitLength:timeavg 0
scalar SingleCell_Standalone_D2D.router.ppp[0].queue outgoingPackets:count 0
scalar SingleCell_Standalone_D2D.router.ppp[0].queue outgoingPacketLengths:sum 0
scalar SingleCell_Standalone_D2D.router.ppp[0].queue incomingPackets:count 0
scalar SingleCell_Standalone_D2D.router.ppp[0].queue incomingPacketLengths:sum 0
scalar SingleCell_Standalone_D2D.router.ppp[0].queue droppedPacketsQueueOverflow:count 0
scalar SingleCell_Standalone_D2D.router.ppp[0].queue droppedPacketLengthsQueueOverflow:sum 0
scalar SingleCell_Standalone_D2D.router.ppp[0].ppp transmissionState:timeavg 0
scalar SingleCell_Standalone_D2D.router.ppp[0].ppp rxPkOk:count 0
scalar SingleCell_Standalone_D2D.router.ppp[0].ppp rxPkOk:sum(packetBytes) 0
scalar SingleCell_Standalone_D2D.router.ppp[0].ppp txPk:count 0
scalar SingleCell_Standalone_D2D.router.ppp[0].ppp txPk:sum(packetBytes) 0
scalar SingleCell_Standalone_D2D.router.ppp[0].ppp rcvdPkFromHl:count 0
scalar SingleCell_Standalone_D2D.router.ppp[0].ppp rcvdPkFromHl:sum(packetBytes) 0
scalar SingleCell_Standalone_D2D.router.ppp[0].ppp passedUpPk:count 0
scalar SingleCell_Standalone_D2D.router.ppp[0].ppp passedUpPk:sum(packetBytes) 0
scalar SingleCell_Standalone_D2D.router.ppp[0].ppp packetDropIncorrectlyReceived:count 0
scalar SingleCell_Standalone_D2D.router.ppp[0].ppp packetDropIncorrectlyReceived:sum(packetBytes) 0
scalar SingleCell_Standalone_D2D.router.ppp[0].ppp packetDropInterfaceDown:count 0
scalar SingleCell_Standalone_D2D.router.ppp[0].ppp packetDropInterfaceDown:sum(packetBytes) 0
scalar SingleCell_Standalone_D2D.router.ppp[0] packetDropInterfaceDown:count 0
scalar SingleCell_Standalone_D2D.router.ppp[0] packetDropInterfaceDown:sum(packetBytes) 0
scalar SingleCell_Standalone_D2D.router.ppp[0] packetDropNoCarrier:count 0
scalar SingleCell_Standalone_D2D.router.ppp[0] packetDropNoCarrier:sum(packetBytes) 0
scalar SingleCell_Standalone_D2D.router.ppp[1].queue queueLength:last 0
scalar SingleCell_Standalone_D2D.router.ppp[1].queue queueLength:max 0
scalar SingleCell_Standalone_D2D.router.ppp[1].queue queueLength:timeavg 0
scalar SingleCell_Standalone_D2D.router.ppp[1].queue queueBitLength:last 0
scalar SingleCell_Standalone_D2D.router.ppp[1].queue queueBitLength:max 0
scalar SingleCell_Standalone_D2D.router.ppp[1].queue queueBitLength:timeavg 0
scalar SingleCell_Standalone_D2D.router.ppp[1].queue outgoingPackets:count 0
scalar SingleCell_Standalone_D2D.router.ppp[1].queue outgoingPacketLengths:sum 0
scalar SingleCell_Standalone_D2D.router.ppp[1].queue incomingPackets:count 0
scalar SingleCell_Standalone_D2D.router.ppp[1].queue incomingPacketLengths:sum 0
scalar SingleCell_Standalone_D2D.router.ppp[1].queue droppedPacketsQueueOverflow:count 0
scalar SingleCell_Standalone_D2D.router.ppp[1].queue droppedPacketLengthsQueueOverflow:sum 0
scalar SingleCell_Standalone_D2D.router.ppp[1].ppp transmissionState:timeavg 0
scalar SingleCell_Standalone_D2D.router.ppp[1].ppp rxPkOk:count 0
scalar SingleCell_Standalone_D2D.router.ppp[1].ppp rxPkOk:sum(packetBytes) 0
scalar SingleCell_Standalone_D2D.router.ppp[1].ppp txPk:count 0
scalar SingleCell_Standalone_D2D.router.ppp[1].ppp txPk:sum(packetBytes) 0
scalar SingleCell_Standalone_D2D.router.ppp[1].ppp rcvdPkFromHl:count 0
scalar SingleCell_Standalone_D2D.router.ppp[1].ppp rcvdPkFromHl:sum(packetBytes) 0
scalar SingleCell_Standalone_D2D.router.ppp[1].ppp passedUpPk:count 0
scalar SingleCell_Standalone_D2D.router.ppp[1].ppp passedUpPk:sum(packetBytes) 0
scalar SingleCell_Standalone_D2D.router.ppp[1].ppp packetDropIncorrectlyReceived:count 0
scalar SingleCell_Standalone_D2D.router.ppp[1].ppp packetDropIncorrectlyReceived:sum(packetBytes) 0
scalar SingleCell_Standalone_D2D.router.ppp[1].ppp packetDropInterfaceDown:count 0
scalar SingleCell_Standalone_D2D.router.ppp[1].ppp packetDropInterfaceDown:sum(packetBytes) 0
scalar SingleCell_Standalone_D2D.router.ppp[1] packetDropInterfaceDown:count 0
scalar SingleCell_Standalone_D2D.router.ppp[1] packetDropInterfaceDown:sum(packetBytes) 0
scalar SingleCell_Standalone_D2D.router.ppp[1] packetDropNoCarrier:count 0
scalar SingleCell_Standalone_D2D.router.ppp[1] packetDropNoCarrier:sum(packetBytes) 0
scalar SingleCell_Standalone_D2D.router.ipv4.ip packetDropAddressResolutionFailed:count 0
scalar SingleCell_Standalone_D2D.router.ipv4.ip packetDropAddressResolutionFailed:sum(packetBytes) 0
scalar SingleCell_Standalone_D2D.router.ipv4.ip packetDropHopLimitReached:count 0
scalar SingleCell_Standalone_D2D.router.ipv4.ip packetDropHopLimitReached:sum(packetBytes) 0
scalar SingleCell_Standalone_D2D.router.ipv4.ip packetDropForwardingDisabled:count 0
scalar SingleCell_Standalone_D2D.router.ipv4.ip packetDropForwardingDisabled:sum(packetBytes) 0
scalar SingleCell_Standalone_D2D.router.ipv4.ip packetDropNoInterfaceFound:count 0
scalar SingleCell_Standalone_D2D.router.ipv4.ip packetDropNoInterfaceFound:sum(packetBytes) 0
scalar SingleCell_Standalone_D2D.router.ipv4.ip packetDropNoRouteFound:count 0
scalar SingleCell_Standalone_D2D.router.ipv4.ip packetDropNoRouteFound:sum(packetBytes) 0
scalar SingleCell_Standalone_D2D.router.ipv4.ip packetDropUndefined:count 0
scalar SingleCell_Standalone_D2D.router.ipv4.ip packetDropUndefined:sum(packetBytes) 0
scalar SingleCell_Standalone_D2D.router.ipv4.arp arpResolutionFailed:count 0
scalar SingleCell_Standalone_D2D.router.ipv4.arp arpResolutionCompleted:count 0
scalar SingleCell_Standalone_D2D.router.ipv4.arp arpResolutionInitiated:count 0
scalar SingleCell_Standalone_D2D.router.ipv4.arp arpReplySent:count 0
scalar SingleCell_Standalone_D2D.router.ipv4.arp arpReplySent:sum(packetBytes) 0
scalar SingleCell_Standalone_D2D.router.ipv4.arp arpRequestSent:count 0
scalar SingleCell_Standalone_D2D.router.ipv4.arp arpRequestSent:sum(packetBytes) 0
scalar SingleCell_Standalone_D2D.upf.lo[0].lo rcvdPkFromHl:count 0
scalar SingleCell_Standalone_D2D.upf.lo[0].lo rcvdPkFromHl:sum(packetBytes) 0
scalar SingleCell_Standalone_D2D.upf.lo[0].lo passedUpPk:count 0
scalar SingleCell_Standalone_D2D.upf.lo[0].lo passedUpPk:sum(packetBytes) 0
scalar SingleCell_Standalone_D2D.upf.lo[0] packetDropInterfaceDown:count 0
scalar SingleCell_Standalone_D2D.upf.lo[0] packetDropInterfaceDown:sum(packetBytes) 0
scalar SingleCell_Standalone_D2D.upf.lo[0] packetDropNoCarrier:count 0
scalar SingleCell_Standalone_D2D.upf.lo[0] packetDropNoCarrier:sum(packetBytes) 0
scalar SingleCell_Standalone_D2D.upf.ppp[0].queue queueLength:last 0
scalar SingleCell_Standalone_D2D.upf.ppp[0].queue queueLength:max 0
scalar SingleCell_Standalone_D2D.upf.ppp[0].queue queueLength:timeavg 0
scalar SingleCell_Standalone_D2D.upf.ppp[0].queue queueBitLength:last 0
scalar SingleCell_Standalone_D2D.upf.ppp[0].queue queueBitLength:max 0
scalar SingleCell_Standalone_D2D.upf.ppp[0].queue queueBitLength:timeavg 0
scalar SingleCell_Standalone_D2D.upf.ppp[0].queue outgoingPackets:count 0
scalar SingleCell_Standalone_D2D.upf.ppp[0].queue outgoingPacketLengths:sum 0
scalar SingleCell_Standalone_D2D.upf.ppp[0].queue incomingPackets:count 0
scalar SingleCell_Standalone_D2D.upf.ppp[0].queue incomingPacketLengths:sum 0
scalar SingleCell_Standalone_D2D.upf.ppp[0].queue droppedPacketsQueueOverflow:count 0
scalar SingleCell_Standalone_D2D.upf.ppp[0].queue droppedPacketLengthsQueueOverflow:sum 0
scalar SingleCell_Standalone_D2D.upf.ppp[0].ppp transmissionState:timeavg 0
scalar SingleCell_Standalone_D2D.upf.ppp[0].ppp rxPkOk:count 0
scalar SingleCell_Standalone_D2D.upf.ppp[0].ppp rxPkOk:sum(packetBytes) 0
scalar SingleCell_Standalone_D2D.upf.ppp[0].ppp txPk:count 0
scalar SingleCell_Standalone_D2D.upf.ppp[0].ppp txPk:sum(packetBytes) 0
scalar SingleCell_Standalone_D2D.upf.ppp[0].ppp rcvdPkFromHl:count 0
scalar SingleCell_Standalone_D2D.upf.ppp[0].ppp rcvdPkFromHl:sum(packetBytes) 0
scalar SingleCell_Standalone_D2D.upf.ppp[0].ppp passedUpPk:count 0
scalar SingleCell_Standalone_D2D.upf.ppp[0].ppp passedUpPk:sum(packetBytes) 0
scalar SingleCell_Standalone_D2D.upf.ppp[0].ppp packetDropIncorrectlyReceived:count 0
scalar SingleCell_Standalone_D2D.upf.ppp[0].ppp packetDropIncorrectlyReceived:sum(packetBytes) 0
scalar SingleCell_Standalone_D2D.upf.ppp[0].ppp packetDropInterfaceDown:count 0
scalar SingleCell_Standalone_D2D.upf.ppp[0].ppp packetDropInterfaceDown:sum(packetBytes) 0
scalar SingleCell_Standalone_D2D.upf.ppp[0] packetDropInterfaceDown:count 0
scalar SingleCell_Standalone_D2D.upf.ppp[0] packetDropInterfaceDown:sum(packetBytes) 0
scalar SingleCell_Standalone_D2D.upf.ppp[0] packetDropNoCarrier:count 0
scalar SingleCell_Standalone_D2D.upf.ppp[0] packetDropNoCarrier:sum(packetBytes) 0
scalar SingleCell_Standalone_D2D.upf.ipv4.ip packetDropAddressResolutionFailed:count 0
scalar SingleCell_Standalone_D2D.upf.ipv4.ip packetDropAddressResolutionFailed:sum(packetBytes) 0
scalar SingleCell_Standalone_D2D.upf.ipv4.ip packetDropHopLimitReached:count 0
scalar SingleCell_Standalone_D2D.upf.ipv4.ip packetDropHopLimitReached:sum(packetBytes) 0
scalar SingleCell_Standalone_D2D.upf.ipv4.ip packetDropForwardingDisabled:count 0
scalar SingleCell_Standalone_D2D.upf.ipv4.ip packetDropForwardingDisabled:sum(packetBytes) 0
scalar SingleCell_Standalone_D2D.upf.ipv4.ip packetDropNoInterfaceFound:count 0
scalar SingleCell_Standalone_D2D.upf.ipv4.ip packetDropNoInterfaceFound:sum(packetBytes) 0
scalar SingleCell_Standalone_D2D.upf.ipv4.ip packetDropNoRouteFound:count 0
scalar SingleCell_Standalone_D2D.upf.ipv4.ip packetDropNoRouteFound:sum(packetBytes) 0
scalar SingleCell_Standalone_D2D.upf.ipv4.ip packetDropUndefined:count 0
scalar SingleCell_Standalone_D2D.upf.ipv4.ip packetDropUndefined:sum(packetBytes) 0
scalar SingleCell_Standalone_D2D.upf.ipv4.arp arpResolutionFailed:count 0
scalar SingleCell_Standalone_D2D.upf.ipv4.arp arpResolutionCompleted:count 0
scalar SingleCell_Standalone_D2D.upf.ipv4.arp arpResolutionInitiated:count 0
scalar SingleCell_Standalone_D2D.upf.ipv4.arp arpReplySent:count 0
scalar SingleCell_Standalone_D2D.upf.ipv4.arp arpReplySent:sum(packetBytes) 0
scalar SingleCell_Standalone_D2D.upf.ipv4.arp arpRequestSent:count 0
scalar SingleCell_Standalone_D2D.upf.ipv4.arp arpRequestSent:sum(packetBytes) 0
scalar SingleCell_Standalone_D2D.upf.pppIf.queue queueLength:last 0
scalar SingleCell_Standalone_D2D.upf.pppIf.queue queueLength:max 0
scalar SingleCell_Standalone_D2D.upf.pppIf.queue queueLength:timeavg 0
scalar SingleCell_Standalone_D2D.upf.pppIf.queue queueBitLength:last 0
scalar SingleCell_Standalone_D2D.upf.pppIf.queue queueBitLength:max 0
scalar SingleCell_Standalone_D2D.upf.pppIf.queue queueBitLength:timeavg 0
scalar SingleCell_Standalone_D2D.upf.pppIf.queue outgoingPackets:count 0
scalar SingleCell_Standalone_D2D.upf.pppIf.queue outgoingPacketLengths:sum 0
scalar SingleCell_Standalone_D2D.upf.pppIf.queue incomingPackets:count 0
scalar SingleCell_Standalone_D2D.upf.pppIf.queue incomingPacketLengths:sum 0
scalar SingleCell_Standalone_D2D.upf.pppIf.queue droppedPacketsQueueOverflow:count 0
scalar SingleCell_Standalone_D2D.upf.pppIf.queue droppedPacketLengthsQueueOverflow:sum 0
scalar SingleCell_Standalone_D2D.upf.pppIf.ppp transmissionState:timeavg 0
scalar SingleCell_Standalone_D2D.upf.pppIf.ppp rxPkOk:count 0
scalar SingleCell_Standalone_D2D.upf.pppIf.ppp rxPkOk:sum(packetBytes) 0
scalar SingleCell_Standalone_D2D.upf.pppIf.ppp txPk:count 0
scalar SingleCell_Standalone_D2D.upf.pppIf.ppp txPk:sum(packetBytes) 0
scalar SingleCell_Standalone_D2D.upf.pppIf.ppp rcvdPkFromHl:count 0
scalar SingleCell_Standalone_D2D.upf.pppIf.ppp rcvdPkFromHl:sum(packetBytes) 0
scalar SingleCell_Standalone_D2D.upf.pppIf.ppp passedUpPk:count 0
scalar SingleCell_Standalone_D2D.upf.pppIf.ppp passedUpPk:sum(packetBytes) 0
scalar SingleCell_Standalone_D2D.upf.pppIf.ppp packetDropIncorrectlyReceived:count 0
scalar SingleCell_Standalone_D2D.upf.pppIf.ppp packetDropIncorrectlyReceived:sum(packetBytes) 0
scalar SingleCell_Standalone_D2D.upf.pppIf.ppp packetDropInterfaceDown:count 0
scalar SingleCell_Standalone_D2D.upf.pppIf.ppp packetDropInterfaceDown:sum(packetBytes) 0
scalar SingleCell_Standalone_D2D.upf.pppIf packetDropInterfaceDown:count 0
scalar SingleCell_Standalone_D2D.upf.pppIf packetDropInterfaceDown:sum(packetBytes) 0
scalar SingleCell_Standalone_D2D.upf.pppIf packetDropNoCarrier:count 0
scalar SingleCell_Standalone_D2D.upf.pppIf packetDropNoCarrier:sum(packetBytes) 0
scalar SingleCell_Standalone_D2D.upf.udp packetReceived:count 0
scalar SingleCell_Standalone_D2D.upf.udp packetReceived:sum(packetBytes) 0
scalar SingleCell_Standalone_D2D.upf.udp packetSent:count 0
scalar SingleCell_Standalone_D2D.upf.udp packetSent:sum(packetBytes) 0
scalar SingleCell_Standalone_D2D.upf.udp passedUpPk:count 0
scalar SingleCell_Standalone_D2D.upf.udp droppedPkWrongPort:count 0
scalar SingleCell_Standalone_D2D.upf.udp droppedPkBadChecksum:count 0
scalar SingleCell_Standalone_D2D.iUpf.lo[0].lo rcvdPkFromHl:count 0
scalar SingleCell_Standalone_D2D.iUpf.lo[0].lo rcvdPkFromHl:sum(packetBytes) 0
scalar SingleCell_Standalone_D2D.iUpf.lo[0].lo passedUpPk:count 0
scalar SingleCell_Standalone_D2D.iUpf.lo[0].lo passedUpPk:sum(packetBytes) 0
scalar SingleCell_Standalone_D2D.iUpf.lo[0] packetDropInterfaceDown:count 0
scalar SingleCell_Standalone_D2D.iUpf.lo[0] packetDropInterfaceDown:sum(packetBytes) 0
scalar SingleCell_Standalone_D2D.iUpf.lo[0] packetDropNoCarrier:count 0
scalar SingleCell_Standalone_D2D.iUpf.lo[0] packetDropNoCarrier:sum(packetBytes) 0
scalar SingleCell_Standalone_D2D.iUpf.ppp[0].queue queueLength:last 0
scalar SingleCell_Standalone_D2D.iUpf.ppp[0].queue queueLength:max 0
scalar SingleCell_Standalone_D2D.iUpf.ppp[0].queue queueLength:timeavg 0
scalar SingleCell_Standalone_D2D.iUpf.ppp[0].queue queueBitLength:last 0
scalar SingleCell_Standalone_D2D.iUpf.ppp[0].queue queueBitLength:max 0
scalar SingleCell_Standalone_D2D.iUpf.ppp[0].queue queueBitLength:timeavg 0
scalar SingleCell_Standalone_D2D.iUpf.ppp[0].queue outgoingPackets:count 0
scalar SingleCell_Standalone_D2D.iUpf.ppp[0].queue outgoingPacketLengths:sum 0
scalar SingleCell_Standalone_D2D.iUpf.ppp[0].queue incomingPackets:count 0
scalar SingleCell_Standalone_D2D.iUpf.ppp[0].queue incomingPacketLengths:sum 0
scalar SingleCell_Standalone_D2D.iUpf.ppp[0].queue droppedPacketsQueueOverflow:count 0
scalar SingleCell_Standalone_D2D.iUpf.ppp[0].queue droppedPacketLengthsQueueOverflow:sum 0
scalar SingleCell_Standalone_D2D.iUpf.ppp[0].ppp transmissionState:timeavg 0
scalar SingleCell_Standalone_D2D.iUpf.ppp[0].ppp rxPkOk:count 0
scalar SingleCell_Standalone_D2D.iUpf.ppp[0].ppp rxPkOk:sum(packetBytes) 0
scalar SingleCell_Standalone_D2D.iUpf.ppp[0].ppp txPk:count 0
scalar SingleCell_Standalone_D2D.iUpf.ppp[0].ppp txPk:sum(packetBytes) 0
scalar SingleCell_Standalone_D2D.iUpf.ppp[0].ppp rcvdPkFromHl:count 0
scalar SingleCell_Standalone_D2D.iUpf.ppp[0].ppp rcvdPkFromHl:sum(packetBytes) 0
scalar SingleCell_Standalone_D2D.iUpf.ppp[0].ppp passedUpPk:count 0
scalar SingleCell_Standalone_D2D.iUpf.ppp[0].ppp passedUpPk:sum(packetBytes) 0
scalar SingleCell_Standalone_D2D.iUpf.ppp[0].ppp packetDropIncorrectlyReceived:count 0
scalar SingleCell_Standalone_D2D.iUpf.ppp[0].ppp packetDropIncorrectlyReceived:sum(packetBytes) 0
scalar SingleCell_Standalone_D2D.iUpf.ppp[0].ppp packetDropInterfaceDown:count 0
scalar SingleCell_Standalone_D2D.iUpf.ppp[0].ppp packetDropInterfaceDown:sum(packetBytes) 0
scalar SingleCell_Standalone_D2D.iUpf.ppp[0] packetDropInterfaceDown:count 0
scalar SingleCell_Standalone_D2D.iUpf.ppp[0] packetDropInterfaceDown:sum(packetBytes) 0
scalar SingleCell_Standalone_D2D.iUpf.ppp[0] packetDropNoCarrier:count 0
scalar SingleCell_Standalone_D2D.iUpf.ppp[0] packetDropNoCarrier:sum(packetBytes) 0
scalar SingleCell_Standalone_D2D.iUpf.ppp[1].queue queueLength:last 0
scalar SingleCell_Standalone_D2D.iUpf.ppp[1].queue queueLength:max 0
scalar SingleCell_Standalone_D2D.iUpf.ppp[1].queue queueLength:timeavg 0
scalar SingleCell_Standalone_D2D.iUpf.ppp[1].queue queueBitLength:last 0
scalar SingleCell_Standalone_D2D.iUpf.ppp[1].queue queueBitLength:max 0
scalar SingleCell_Standalone_D2D.iUpf.ppp[1].queue queueBitLength:timeavg 0
scalar SingleCell_Standalone_D2D.iUpf.ppp[1].queue outgoingPackets:count 0
scalar SingleCell_Standalone_D2D.iUpf.ppp[1].queue outgoingPacketLengths:sum 0
scalar SingleCell_Standalone_D2D.iUpf.ppp[1].queue incomingPackets:count 0
scalar SingleCell_Standalone_D2D.iUpf.ppp[1].queue incomingPacketLengths:sum 0
scalar SingleCell_Standalone_D2D.iUpf.ppp[1].queue droppedPacketsQueueOverflow:count 0
scalar SingleCell_Standalone_D2D.iUpf.ppp[1].queue droppedPacketLengthsQueueOverflow:sum 0
scalar SingleCell_Standalone_D2D.iUpf.ppp[1].ppp transmissionState:timeavg 0
scalar SingleCell_Standalone_D2D.iUpf.ppp[1].ppp rxPkOk:count 0
scalar SingleCell_Standalone_D2D.iUpf.ppp[1].ppp rxPkOk:sum(packetBytes) 0
scalar SingleCell_Standalone_D2D.iUpf.ppp[1].ppp txPk:count 0
scalar SingleCell_Standalone_D2D.iUpf.ppp[1].ppp txPk:sum(packetBytes) 0
scalar SingleCell_Standalone_D2D.iUpf.ppp[1].ppp rcvdPkFromHl:count 0
scalar SingleCell_Standalone_D2D.iUpf.ppp[1].ppp rcvdPkFromHl:sum(packetBytes) 0
scalar SingleCell_Standalone_D2D.iUpf.ppp[1].ppp passedUpPk:count 0
scalar SingleCell_Standalone_D2D.iUpf.ppp[1].ppp passedUpPk:sum(packetBytes) 0
scalar SingleCell_Standalone_D2D.iUpf.ppp[1].ppp packetDropIncorrectlyReceived:count 0
scalar SingleCell_Standalone_D2D.iUpf.ppp[1].ppp packetDropIncorrectlyReceived:sum(packetBytes) 0
scalar SingleCell_Standalone_D2D.iUpf.ppp[1].ppp packetDropInterfaceDown:count 0
scalar SingleCell_Standalone_D2D.iUpf.ppp[1].ppp packetDropInterfaceDown:sum(packetBytes) 0
scalar SingleCell_Standalone_D2D.iUpf.ppp[1] packetDropInterfaceDown:count 0
scalar SingleCell_Standalone_D2D.iUpf.ppp[1] packetDropInterfaceDown:sum(packetBytes) 0
scalar SingleCell_Standalone_D2D.iUpf.ppp[1] packetDropNoCarrier:count 0
scalar SingleCell_Standalone_D2D.iUpf.ppp[1] packetDropNoCarrier:sum(packetBytes) 0
scalar SingleCell_Standalone_D2D.iUpf.ipv4.ip packetDropAddressResolutionFailed:count 0
scalar SingleCell_Standalone_D2D.iUpf.ipv4.ip packetDropAddressResolutionFailed:sum(packetBytes) 0
scalar SingleCell_Standalone_D2D.iUpf.ipv4.ip packetDropHopLimitReached:count 0
scalar SingleCell_Standalone_D2D.iUpf.ipv4.ip packetDropHopLimitReached:sum(packetBytes) 0
scalar SingleCell_Standalone_D2D.iUpf.ipv4.ip packetDropForwardingDisabled:count 0
scalar SingleCell_Standalone_D2D.iUpf.ipv4.ip packetDropForwardingDisabled:sum(packetBytes) 0
scalar SingleCell_Standalone_D2D.iUpf.ipv4.ip packetDropNoInterfaceFound:count 0
scalar SingleCell_Standalone_D2D.iUpf.ipv4.ip packetDropNoInterfaceFound:sum(packetBytes) 0
scalar SingleCell_Standalone_D2D.iUpf.ipv4.ip packetDropNoRouteFound:count 0
scalar SingleCell_Standalone_D2D.iUpf.ipv4.ip packetDropNoRouteFound:sum(packetBytes) 0
scalar SingleCell_Standalone_D2D.iUpf.ipv4.ip packetDropUndefined:count 0
scalar SingleCell_Standalone_D2D.iUpf.ipv4.ip packetDropUndefined:sum(packetBytes) 0
scalar SingleCell_Standalone_D2D.iUpf.ipv4.arp arpResolutionFailed:count 0
scalar SingleCell_Standalone_D2D.iUpf.ipv4.arp arpResolutionCompleted:count 0
scalar SingleCell_Standalone_D2D.iUpf.ipv4.arp arpResolutionInitiated:count 0
scalar SingleCell_Standalone_D2D.iUpf.ipv4.arp arpReplySent:count 0
scalar SingleCell_Standalone_D2D.iUpf.ipv4.arp arpReplySent:sum(packetBytes) 0
scalar SingleCell_Standalone_D2D.iUpf.ipv4.arp arpRequestSent:count 0
scalar SingleCell_Standalone_D2D.iUpf.ipv4.arp arpRequestSent:sum(packetBytes) 0
scalar SingleCell_Standalone_D2D.iUpf.pppIf.queue queueLength:last 0
scalar SingleCell_Standalone_D2D.iUpf.pppIf.queue queueLength:max 0
scalar SingleCell_Standalone_D2D.iUpf.pppIf.queue queueLength:timeavg 0
scalar SingleCell_Standalone_D2D.iUpf.pppIf.queue queueBitLength:last 0
scalar SingleCell_Standalone_D2D.iUpf.pppIf.queue queueBitLength:max 0
scalar SingleCell_Standalone_D2D.iUpf.pppIf.queue queueBitLength:timeavg 0
scalar SingleCell_Standalone_D2D.iUpf.pppIf.queue outgoingPackets:count 0
scalar SingleCell_Standalone_D2D.iUpf.pppIf.queue outgoingPacketLengths:sum 0
scalar SingleCell_Standalone_D2D.iUpf.pppIf.queue incomingPackets:count 0
scalar SingleCell_Standalone_D2D.iUpf.pppIf.queue incomingPacketLengths:sum 0
scalar SingleCell_Standalone_D2D.iUpf.pppIf.queue droppedPacketsQueueOverflow:count 0
scalar SingleCell_Standalone_D2D.iUpf.pppIf.queue droppedPacketLengthsQueueOverflow:sum 0
scalar SingleCell_Standalone_D2D.iUpf.pppIf.ppp transmissionState:timeavg 0
scalar SingleCell_Standalone_D2D.iUpf.pppIf.ppp rxPkOk:count 0
scalar SingleCell_Standalone_D2D.iUpf.pppIf.ppp rxPkOk:sum(packetBytes) 0
scalar SingleCell_Standalone_D2D.iUpf.pppIf.ppp txPk:count 0
scalar SingleCell_Standalone_D2D.iUpf.pppIf.ppp txPk:sum(packetBytes) 0
scalar SingleCell_Standalone_D2D.iUpf.pppIf.ppp rcvdPkFromHl:count 0
scalar SingleCell_Standalone_D2D.iUpf.pppIf.ppp rcvdPkFromHl:sum(packetBytes) 0
scalar SingleCell_Standalone_D2D.iUpf.pppIf.ppp passedUpPk:count 0
scalar SingleCell_Standalone_D2D.iUpf.pppIf.ppp passedUpPk:sum(packetBytes) 0
scalar SingleCell_Standalone_D2D.iUpf.pppIf.ppp packetDropIncorrectlyReceived:count 0
scalar SingleCell_Standalone_D2D.iUpf.pppIf.ppp packetDropIncorrectlyReceived:sum(packetBytes) 0
scalar SingleCell_Standalone_D2D.iUpf.pppIf.ppp packetDropInterfaceDown:count 0
scalar SingleCell_Standalone_D2D.iUpf.pppIf.ppp packetDropInterfaceDown:sum(packetBytes) 0
scalar SingleCell_Standalone_D2D.iUpf.pppIf packetDropInterfaceDown:count 0
scalar SingleCell_Standalone_D2D.iUpf.pppIf packetDropInterfaceDown:sum(packetBytes) 0
scalar SingleCell_Standalone_D2D.iUpf.pppIf packetDropNoCarrier:count 0
scalar SingleCell_Standalone_D2D.iUpf.pppIf packetDropNoCarrier:sum(packetBytes) 0
scalar SingleCell_Standalone_D2D.iUpf.udp packetReceived:count 0
scalar SingleCell_Standalone_D2D.iUpf.udp packetReceived:sum(packetBytes) 0
scalar SingleCell_Standalone_D2D.iUpf.udp packetSent:count 0
scalar SingleCell_Standalone_D2D.iUpf.udp packetSent:sum(packetBytes) 0
scalar SingleCell_Standalone_D2D.iUpf.udp passedUpPk:count 0
scalar SingleCell_Standalone_D2D.iUpf.udp droppedPkWrongPort:count 0
scalar SingleCell_Standalone_D2D.iUpf.udp droppedPkBadChecksum:count 0
scalar SingleCell_Standalone_D2D.gnb.cellularNic.pdcp sentPacketToLowerLayer:count 14673
scalar SingleCell_Standalone_D2D.gnb.cellularNic.pdcp sentPacketToLowerLayer:sum(packetBytes) 4535305
scalar SingleCell_Standalone_D2D.gnb.cellularNic.pdcp sentPacketToUpperLayer:count 14673
scalar SingleCell_Standalone_D2D.gnb.cellularNic.pdcp sentPacketToUpperLayer:sum(packetBytes) 4520632
scalar SingleCell_Standalone_D2D.gnb.cellularNic.pdcp receivedPacketFromLowerLayer:count 14673
scalar SingleCell_Standalone_D2D.gnb.cellularNic.pdcp receivedPacketFromLowerLayer:sum(packetBytes) 4535305
scalar SingleCell_Standalone_D2D.gnb.cellularNic.pdcp receivedPacketFromUpperLayer:count 14673
scalar SingleCell_Standalone_D2D.gnb.cellularNic.pdcp receivedPacketFromUpperLayer:sum(packetBytes) 4520632
scalar SingleCell_Standalone_D2D.gnb.cellularNic.rlc.tm rlcPacketLossUl:mean -nan
scalar SingleCell_Standalone_D2D.gnb.cellularNic.rlc.tm rlcPacketLossUl:sum 0
scalar SingleCell_Standalone_D2D.gnb.cellularNic.rlc.tm rlcPacketLossDl:mean -nan
scalar SingleCell_Standalone_D2D.gnb.cellularNic.rlc.tm rlcPacketLossDl:sum 0
scalar SingleCell_Standalone_D2D.gnb.cellularNic.rlc.tm sentPacketToLowerLayer:count 0
scalar SingleCell_Standalone_D2D.gnb.cellularNic.rlc.tm sentPacketToLowerLayer:sum(packetBytes) 0
scalar SingleCell_Standalone_D2D.gnb.cellularNic.rlc.tm sentPacketToUpperLayer:count 0
scalar SingleCell_Standalone_D2D.gnb.cellularNic.rlc.tm sentPacketToUpperLayer:sum(packetBytes) 0
scalar SingleCell_Standalone_D2D.gnb.cellularNic.rlc.tm receivedPacketFromLowerLayer:count 0
scalar SingleCell_Standalone_D2D.gnb.cellularNic.rlc.tm receivedPacketFromLowerLayer:sum(packetBytes) 0
scalar SingleCell_Standalone_D2D.gnb.cellularNic.rlc.tm receivedPacketFromUpperLayer:count 0
scalar SingleCell_Standalone_D2D.gnb.cellularNic.rlc.tm receivedPacketFromUpperLayer:sum(packetBytes) 0
scalar SingleCell_Standalone_D2D.gnb.cellularNic.rlc.um rlcCellThroughputD2D:mean -nan
scalar SingleCell_Standalone_D2D.gnb.cellularNic.rlc.um rlcCellPacketLossD2D:mean -nan
scalar SingleCell_Standalone_D2D.gnb.cellularNic.rlc.um rlcPduThroughputD2D:mean -nan
scalar SingleCell_Standalone_D2D.gnb.cellularNic.rlc.um rlcPduDelayD2D:mean -nan
scalar SingleCell_Standalone_D2D.gnb.cellularNic.rlc.um rlcThroughputD2D:mean -nan
scalar SingleCell_Standalone_D2D.gnb.cellularNic.rlc.um rlcDelayD2D:mean -nan
scalar SingleCell_Standalone_D2D.gnb.cellularNic.rlc.um rlcPduPacketLossD2D:mean -nan
scalar SingleCell_Standalone_D2D.gnb.cellularNic.rlc.um rlcPacketLossD2D:mean -nan
scalar SingleCell_Standalone_D2D.gnb.cellularNic.rlc.um rlcPacketLossTotal:mean -nan
scalar SingleCell_Standalone_D2D.gnb.cellularNic.rlc.um rlcCellThroughputUl:mean 417522.39448994037
scalar SingleCell_Standalone_D2D.gnb.cellularNic.rlc.um rlcCellThroughputDl:mean 417672.66801911866
scalar SingleCell_Standalone_D2D.gnb.cellularNic.rlc.um rlcPduThroughputUl:mean -nan
scalar SingleCell_Standalone_D2D.gnb.cellularNic.rlc.um rlcPduThroughputDl:mean -nan
scalar SingleCell_Standalone_D2D.gnb.cellularNic.rlc.um rlcPduDelayUl:mean -nan
scalar SingleCell_Standalone_D2D.gnb.cellularNic.rlc.um rlcPduDelayDl:mean -nan
scalar SingleCell_Standalone_D2D.gnb.cellularNic.rlc.um rlcThroughputUl:mean -nan
scalar SingleCell_Standalone_D2D.gnb.cellularNic.rlc.um rlcThroughputDl:mean -nan
scalar SingleCell_Standalone_D2D.gnb.cellularNic.rlc.um rlcDelayUl:mean -nan
scalar SingleCell_Standalone_D2D.gnb.cellularNic.rlc.um rlcDelayDl:mean -nan
scalar SingleCell_Standalone_D2D.gnb.cellularNic.rlc.um rlcPduPacketLossUl:mean -nan
scalar SingleCell_Standalone_D2D.gnb.cellularNic.rlc.um rlcPduPacketLossDl:mean -nan
scalar SingleCell_Standalone_D2D.gnb.cellularNic.rlc.um rlcPacketLossUl:mean -nan
scalar SingleCell_Standalone_D2D.gnb.cellularNic.rlc.um rlcPacketLossUl:sum 0
scalar SingleCell_Standalone_D2D.gnb.cellularNic.rlc.um rlcPacketLossDl:mean -nan
scalar SingleCell_Standalone_D2D.gnb.cellularNic.rlc.um rlcPacketLossDl:sum 0
scalar SingleCell_Standalone_D2D.gnb.cellularNic.rlc.um rlcCellPacketLossUl:mean 0
scalar SingleCell_Standalone_D2D.gnb.cellularNic.rlc.um rlcCellPacketLossDl:mean 0
scalar SingleCell_Standalone_D2D.gnb.cellularNic.rlc.um sentPacketToLowerLayer:count 4317
scalar SingleCell_Standalone_D2D.gnb.cellularNic.rlc.um sentPacketToLowerLayer:sum(packetBytes) 4542208
scalar SingleCell_Standalone_D2D.gnb.cellularNic.rlc.um sentPacketToUpperLayer:count 14673
scalar SingleCell_Standalone_D2D.gnb.cellularNic.rlc.um sentPacketToUpperLayer:sum(packetBytes) 4535305
scalar SingleCell_Standalone_D2D.gnb.cellularNic.rlc.um receivedPacketFromLowerLayer:count 6045
scalar SingleCell_Standalone_D2D.gnb.cellularNic.rlc.um receivedPacketFromLowerLayer:sum(packetBytes) 4547395
scalar SingleCell_Standalone_D2D.gnb.cellularNic.rlc.um receivedPacketFromUpperLayer:count 14673
scalar SingleCell_Standalone_D2D.gnb.cellularNic.rlc.um receivedPacketFromUpperLayer:sum(packetBytes) 4535305
scalar SingleCell_Standalone_D2D.gnb.cellularNic.rlc.am rlcPacketLossTotal:mean -nan
scalar SingleCell_Standalone_D2D.gnb.cellularNic.rlc.am rlcCellThroughputUl:mean -nan
scalar SingleCell_Standalone_D2D.gnb.cellularNic.rlc.am rlcCellThroughputDl:mean -nan
scalar SingleCell_Standalone_D2D.gnb.cellularNic.rlc.am rlcPduThroughputUl:mean -nan
scalar SingleCell_Standalone_D2D.gnb.cellularNic.rlc.am rlcPduThroughputDl:mean -nan
scalar SingleCell_Standalone_D2D.gnb.cellularNic.rlc.am rlcPduDelayUl:mean -nan
scalar SingleCell_Standalone_D2D.gnb.cellularNic.rlc.am rlcPduDelayDl:mean -nan
scalar SingleCell_Standalone_D2D.gnb.cellularNic.rlc.am rlcThroughputUl:mean -nan
scalar SingleCell_Standalone_D2D.gnb.cellularNic.rlc.am rlcThroughputDl:mean -nan
scalar SingleCell_Standalone_D2D.gnb.cellularNic.rlc.am rlcDelayUl:mean -nan
scalar SingleCell_Standalone_D2D.gnb.cellularNic.rlc.am rlcDelayDl:mean -nan
scalar SingleCell_Standalone_D2D.gnb.cellularNic.rlc.am rlcPduPacketLossUl:mean -nan
scalar SingleCell_Standalone_D2D.gnb.cellularNic.rlc.am rlcPduPacketLossDl:mean -nan
scalar SingleCell_Standalone_D2D.gnb.cellularNic.rlc.am rlcPacketLossUl:mean -nan
scalar SingleCell_Standalone_D2D.gnb.cellularNic.rlc.am rlcPacketLossDl:mean -nan
scalar SingleCell_Standalone_D2D.gnb.cellularNic.rlc.am rlcCellPacketLossUl:mean -nan
scalar SingleCell_Standalone_D2D.gnb.cellularNic.rlc.am rlcCellPacketLossDl:mean -nan
scalar SingleCell_Standalone_D2D.gnb.cellularNic.mac avgServedBlocksUl:mean 1.6191
scalar SingleCell_Standalone_D2D.gnb.cellularNic.mac avgServedBlocksDl:mean 1.5968500000000001
scalar SingleCell_Standalone_D2D.gnb.cellularNic.mac macCellPacketLossD2D:mean -nan
scalar SingleCell_Standalone_D2D.gnb.cellularNic.mac macCellThroughputD2D:mean -nan
scalar SingleCell_Standalone_D2D.gnb.cellularNic.mac harqTxAttemptsUl:mean -nan
scalar SingleCell_Standalone_D2D.gnb.cellularNic.mac harqTxAttemptsDl:mean -nan
scalar SingleCell_Standalone_D2D.gnb.cellularNic.mac harqErrorRate_4th_Ul:mean -nan
scalar SingleCell_Standalone_D2D.gnb.cellularNic.mac harqErrorRate_4th_Dl:mean -nan
scalar SingleCell_Standalone_D2D.gnb.cellularNic.mac harqErrorRate_3rd_Ul:mean -nan
scalar SingleCell_Standalone_D2D.gnb.cellularNic.mac harqErrorRate_3rd_Dl:mean -nan
scalar SingleCell_Standalone_D2D.gnb.cellularNic.mac harqErrorRate_2nd_Ul:mean -nan
scalar SingleCell_Standalone_D2D.gnb.cellularNic.mac harqErrorRate_2nd_Dl:mean -nan
scalar SingleCell_Standalone_D2D.gnb.cellularNic.mac harqErrorRate_1st_Ul:mean -nan
scalar SingleCell_Standalone_D2D.gnb.cellularNic.mac harqErrorRate_1st_Dl:mean -nan
scalar SingleCell_Standalone_D2D.gnb.cellularNic.mac harqErrorRateUl:mean -nan
scalar SingleCell_Standalone_D2D.gnb.cellularNic.mac harqErrorRateDl:mean -nan
scalar SingleCell_Standalone_D2D.gnb.cellularNic.mac macCellPacketLossUl:mean 0
scalar SingleCell_Standalone_D2D.gnb.cellularNic.mac macCellPacketLossDl:mean 0
scalar SingleCell_Standalone_D2D.gnb.cellularNic.mac macPacketLossUl:mean -nan
scalar SingleCell_Standalone_D2D.gnb.cellularNic.mac macPacketLossDl:mean -nan
scalar SingleCell_Standalone_D2D.gnb.cellularNic.mac macThroughputUl:mean -nan
scalar SingleCell_Standalone_D2D.gnb.cellularNic.mac macThroughputDl:mean -nan
scalar SingleCell_Standalone_D2D.gnb.cellularNic.mac macDelayUl:mean -nan
scalar SingleCell_Standalone_D2D.gnb.cellularNic.mac macDelayDl:mean -nan
scalar SingleCell_Standalone_D2D.gnb.cellularNic.mac macCellThroughputUl:mean 419205.44268611143
scalar SingleCell_Standalone_D2D.gnb.cellularNic.mac macCellThroughputDl:mean 419384.4691308706
scalar SingleCell_Standalone_D2D.gnb.cellularNic.mac sentPacketToLowerLayer:count 19866
scalar SingleCell_Standalone_D2D.gnb.cellularNic.mac sentPacketToLowerLayer:sum(packetBytes) 4566391
scalar SingleCell_Standalone_D2D.gnb.cellularNic.mac sentPacketToUpperLayer:count 10362
scalar SingleCell_Standalone_D2D.gnb.cellularNic.mac sentPacketToUpperLayer:sum(packetBytes) 4551712
scalar SingleCell_Standalone_D2D.gnb.cellularNic.mac receivedPacketFromLowerLayer:count 20487
scalar SingleCell_Standalone_D2D.gnb.cellularNic.mac receivedPacketFromLowerLayer:sum(packetBytes) 4574071
scalar SingleCell_Standalone_D2D.gnb.cellularNic.mac receivedPacketFromUpperLayer:count 18990
scalar SingleCell_Standalone_D2D.gnb.cellularNic.mac receivedPacketFromUpperLayer:sum(packetBytes) 9106859
scalar SingleCell_Standalone_D2D.gnb.cellularNic.mac macBufferOverFlowD2D:mean -nan
scalar SingleCell_Standalone_D2D.gnb.cellularNic.mac macBufferOverFlowUl:mean -nan
scalar SingleCell_Standalone_D2D.gnb.cellularNic.mac macBufferOverFlowDl:mean -nan
scalar SingleCell_Standalone_D2D.gnb.cellularNic.channelModel[0] measuredSinrUl:mean -nan
scalar SingleCell_Standalone_D2D.gnb.cellularNic.channelModel[0] measuredSinrDl:mean -nan
scalar SingleCell_Standalone_D2D.gnb.cellularNic.channelModel[0] rcvdSinrD2D:mean -nan
scalar SingleCell_Standalone_D2D.gnb.cellularNic.channelModel[0] rcvdSinrUl:mean -nan
scalar SingleCell_Standalone_D2D.gnb.cellularNic.channelModel[0] rcvdSinrDl:mean -nan
scalar SingleCell_Standalone_D2D.gnb.cellularNic packetDropInterfaceDown:count 0
scalar SingleCell_Standalone_D2D.gnb.cellularNic packetDropInterfaceDown:sum(packetBytes) 0
scalar SingleCell_Standalone_D2D.gnb.cellularNic packetDropNoCarrier:count 0
scalar SingleCell_Standalone_D2D.gnb.cellularNic packetDropNoCarrier:sum(packetBytes) 0
scalar SingleCell_Standalone_D2D.gnb.pppIf.queue queueLength:last 0
scalar SingleCell_Standalone_D2D.gnb.pppIf.queue queueLength:max 0
scalar SingleCell_Standalone_D2D.gnb.pppIf.queue queueLength:timeavg 0
scalar SingleCell_Standalone_D2D.gnb.pppIf.queue queueBitLength:last 0
scalar SingleCell_Standalone_D2D.gnb.pppIf.queue queueBitLength:max 0
scalar SingleCell_Standalone_D2D.gnb.pppIf.queue queueBitLength:timeavg 0
scalar SingleCell_Standalone_D2D.gnb.pppIf.queue outgoingPackets:count 0
scalar SingleCell_Standalone_D2D.gnb.pppIf.queue outgoingPacketLengths:sum 0
scalar SingleCell_Standalone_D2D.gnb.pppIf.queue incomingPackets:count 0
scalar SingleCell_Standalone_D2D.gnb.pppIf.queue incomingPacketLengths:sum 0
scalar SingleCell_Standalone_D2D.gnb.pppIf.queue droppedPacketsQueueOverflow:count 0
scalar SingleCell_Standalone_D2D.gnb.pppIf.queue droppedPacketLengthsQueueOverflow:sum 0
scalar SingleCell_Standalone_D2D.gnb.pppIf.ppp transmissionState:timeavg 0
scalar SingleCell_Standalone_D2D.gnb.pppIf.ppp rxPkOk:count 0
scalar SingleCell_Standalone_D2D.gnb.pppIf.ppp rxPkOk:sum(packetBytes) 0
scalar SingleCell_Standalone_D2D.gnb.pppIf.ppp txPk:count 0
scalar SingleCell_Standalone_D2D.gnb.pppIf.ppp txPk:sum(packetBytes) 0
scalar SingleCell_Standalone_D2D.gnb.pppIf.ppp rcvdPkFromHl:count 0
scalar SingleCell_Standalone_D2D.gnb.pppIf.ppp rcvdPkFromHl:sum(packetBytes) 0
scalar SingleCell_Standalone_D2D.gnb.pppIf.ppp passedUpPk:count 0
scalar SingleCell_Standalone_D2D.gnb.pppIf.ppp passedUpPk:sum(packetBytes) 0
scalar SingleCell_Standalone_D2D.gnb.pppIf.ppp packetDropIncorrectlyReceived:count 0
scalar SingleCell_Standalone_D2D.gnb.pppIf.ppp packetDropIncorrectlyReceived:sum(packetBytes) 0
scalar SingleCell_Standalone_D2D.gnb.pppIf.ppp packetDropInterfaceDown:count 0
scalar SingleCell_Standalone_D2D.gnb.pppIf.ppp packetDropInterfaceDown:sum(packetBytes) 0
scalar SingleCell_Standalone_D2D.gnb.pppIf packetDropInterfaceDown:count 0
scalar SingleCell_Standalone_D2D.gnb.pppIf packetDropInterfaceDown:sum(packetBytes) 0
scalar SingleCell_Standalone_D2D.gnb.pppIf packetDropNoCarrier:count 0
scalar SingleCell_Standalone_D2D.gnb.pppIf packetDropNoCarrier:sum(packetBytes) 0
scalar SingleCell_Standalone_D2D.gnb.pppMEHostIf.queue queueLength:last 0
scalar SingleCell_Standalone_D2D.gnb.pppMEHostIf.queue queueLength:max 0
scalar SingleCell_Standalone_D2D.gnb.pppMEHostIf.queue queueLength:timeavg 0
scalar SingleCell_Standalone_D2D.gnb.pppMEHostIf.queue queueBitLength:last 0
scalar SingleCell_Standalone_D2D.gnb.pppMEHostIf.queue queueBitLength:max 0
scalar SingleCell_Standalone_D2D.gnb.pppMEHostIf.queue queueBitLength:timeavg 0
scalar SingleCell_Standalone_D2D.gnb.pppMEHostIf.queue outgoingPackets:count 0
scalar SingleCell_Standalone_D2D.gnb.pppMEHostIf.queue outgoingPacketLengths:sum 0
scalar SingleCell_Standalone_D2D.gnb.pppMEHostIf.queue incomingPackets:count 0
scalar SingleCell_Standalone_D2D.gnb.pppMEHostIf.queue incomingPacketLengths:sum 0
scalar SingleCell_Standalone_D2D.gnb.pppMEHostIf.queue droppedPacketsQueueOverflow:count 0
scalar SingleCell_Standalone_D2D.gnb.pppMEHostIf.queue droppedPacketLengthsQueueOverflow:sum 0
scalar SingleCell_Standalone_D2D.gnb.pppMEHostIf.ppp transmissionState:timeavg 0
scalar SingleCell_Standalone_D2D.gnb.pppMEHostIf.ppp rxPkOk:count 0
scalar SingleCell_Standalone_D2D.gnb.pppMEHostIf.ppp rxPkOk:sum(packetBytes) 0
scalar SingleCell_Standalone_D2D.gnb.pppMEHostIf.ppp txPk:count 0
scalar SingleCell_Standalone_D2D.gnb.pppMEHostIf.ppp txPk:sum(packetBytes) 0
scalar SingleCell_Standalone_D2D.gnb.pppMEHostIf.ppp rcvdPkFromHl:count 0
scalar SingleCell_Standalone_D2D.gnb.pppMEHostIf.ppp rcvdPkFromHl:sum(packetBytes) 0
scalar SingleCell_Standalone_D2D.gnb.pppMEHostIf.ppp passedUpPk:count 0
scalar SingleCell_Standalone_D2D.gnb.pppMEHostIf.ppp passedUpPk:sum(packetBytes) 0
scalar SingleCell_Standalone_D2D.gnb.pppMEHostIf.ppp packetDropIncorrectlyReceived:count 0
scalar SingleCell_Standalone_D2D.gnb.pppMEHostIf.ppp packetDropIncorrectlyReceived:sum(packetBytes) 0
scalar SingleCell_Standalone_D2D.gnb.pppMEHostIf.ppp packetDropInterfaceDown:count 0
scalar SingleCell_Standalone_D2D.gnb.pppMEHostIf.ppp packetDropInterfaceDown:sum(packetBytes) 0
scalar SingleCell_Standalone_D2D.gnb.pppMEHostIf packetDropInterfaceDown:count 0
scalar SingleCell_Standalone_D2D.gnb.pppMEHostIf packetDropInterfaceDown:sum(packetBytes) 0
scalar SingleCell_Standalone_D2D.gnb.pppMEHostIf packetDropNoCarrier:count 0
scalar SingleCell_Standalone_D2D.gnb.pppMEHostIf packetDropNoCarrier:sum(packetBytes) 0
scalar SingleCell_Standalone_D2D.gnb.ipv4.ip packetDropAddressResolutionFailed:count 0
scalar SingleCell_Standalone_D2D.gnb.ipv4.ip packetDropAddressResolutionFailed:sum(packetBytes) 0
scalar SingleCell_Standalone_D2D.gnb.ipv4.ip packetDropHopLimitReached:count 0
scalar SingleCell_Standalone_D2D.gnb.ipv4.ip packetDropHopLimitReached:sum(packetBytes) 0
scalar SingleCell_Standalone_D2D.gnb.ipv4.ip packetDropForwardingDisabled:count 0
scalar SingleCell_Standalone_D2D.gnb.ipv4.ip packetDropForwardingDisabled:sum(packetBytes) 0
scalar SingleCell_Standalone_D2D.gnb.ipv4.ip packetDropNoInterfaceFound:count 0
scalar SingleCell_Standalone_D2D.gnb.ipv4.ip packetDropNoInterfaceFound:sum(packetBytes) 0
scalar SingleCell_Standalone_D2D.gnb.ipv4.ip packetDropNoRouteFound:count 0
scalar SingleCell_Standalone_D2D.gnb.ipv4.ip packetDropNoRouteFound:sum(packetBytes) 0
scalar SingleCell_Standalone_D2D.gnb.ipv4.ip packetDropUndefined:count 0
scalar SingleCell_Standalone_D2D.gnb.ipv4.ip packetDropUndefined:sum(packetBytes) 0
scalar SingleCell_Standalone_D2D.gnb.ipv4.arp arpResolutionFailed:count 0
scalar SingleCell_Standalone_D2D.gnb.ipv4.arp arpResolutionCompleted:count 0
scalar SingleCell_Standalone_D2D.gnb.ipv4.arp arpResolutionInitiated:count 0
scalar SingleCell_Standalone_D2D.gnb.ipv4.arp arpReplySent:count 0
scalar SingleCell_Standalone_D2D.gnb.ipv4.arp arpReplySent:sum(packetBytes) 0
scalar SingleCell_Standalone_D2D.gnb.ipv4.arp arpRequestSent:count 0
scalar SingleCell_Standalone_D2D.gnb.ipv4.arp arpRequestSent:sum(packetBytes) 0
scalar SingleCell_Standalone_D2D.gnb.udp packetReceived:count 0
scalar SingleCell_Standalone_D2D.gnb.udp packetReceived:sum(packetBytes) 0
scalar SingleCell_Standalone_D2D.gnb.udp packetSent:count 0
scalar SingleCell_Standalone_D2D.gnb.udp packetSent:sum(packetBytes) 0
scalar SingleCell_Standalone_D2D.gnb.udp passedUpPk:count 0
scalar SingleCell_Standalone_D2D.gnb.udp droppedPkWrongPort:count 0
scalar SingleCell_Standalone_D2D.gnb.udp droppedPkBadChecksum:count 0
scalar SingleCell_Standalone_D2D.ueD2DTx[0].lo[0].lo rcvdPkFromHl:count 0
scalar SingleCell_Standalone_D2D.ueD2DTx[0].lo[0].lo rcvdPkFromHl:sum(packetBytes) 0
scalar SingleCell_Standalone_D2D.ueD2DTx[0].lo[0].lo passedUpPk:count 0
scalar SingleCell_Standalone_D2D.ueD2DTx[0].lo[0].lo passedUpPk:sum(packetBytes) 0
scalar SingleCell_Standalone_D2D.ueD2DTx[0].lo[0] packetDropInterfaceDown:count 0
scalar SingleCell_Standalone_D2D.ueD2DTx[0].lo[0] packetDropInterfaceDown:sum(packetBytes) 0
scalar SingleCell_Standalone_D2D.ueD2DTx[0].lo[0] packetDropNoCarrier:count 0
scalar SingleCell_Standalone_D2D.ueD2DTx[0].lo[0] packetDropNoCarrier:sum(packetBytes) 0
scalar SingleCell_Standalone_D2D.ueD2DTx[0].cellularNic.pdcp sentPacketToLowerLayer:count 7344
scalar SingleCell_Standalone_D2D.ueD2DTx[0].cellularNic.pdcp sentPacketToLowerLayer:sum(packetBytes) 4236420
scalar SingleCell_Standalone_D2D.ueD2DTx[0].cellularNic.pdcp sentPacketToUpperLayer:count 7329
scalar SingleCell_Standalone_D2D.ueD2DTx[0].cellularNic.pdcp sentPacketToUpperLayer:sum(packetBytes) 293164
scalar SingleCell_Standalone_D2D.ueD2DTx[0].cellularNic.pdcp receivedPacketFromLowerLayer:count 7329
scalar SingleCell_Standalone_D2D.ueD2DTx[0].cellularNic.pdcp receivedPacketFromLowerLayer:sum(packetBytes) 300493
scalar SingleCell_Standalone_D2D.ueD2DTx[0].cellularNic.pdcp receivedPacketFromUpperLayer:count 7344
scalar SingleCell_Standalone_D2D.ueD2DTx[0].cellularNic.pdcp receivedPacketFromUpperLayer:sum(packetBytes) 4229076
scalar SingleCell_Standalone_D2D.ueD2DTx[0].cellularNic.rlc.tm rlcPacketLossUl:mean -nan
scalar SingleCell_Standalone_D2D.ueD2DTx[0].cellularNic.rlc.tm rlcPacketLossUl:sum 0
scalar SingleCell_Standalone_D2D.ueD2DTx[0].cellularNic.rlc.tm rlcPacketLossDl:mean -nan
scalar SingleCell_Standalone_D2D.ueD2DTx[0].cellularNic.rlc.tm rlcPacketLossDl:sum 0
scalar SingleCell_Standalone_D2D.ueD2DTx[0].cellularNic.rlc.tm sentPacketToLowerLayer:count 0
scalar SingleCell_Standalone_D2D.ueD2DTx[0].cellularNic.rlc.tm sentPacketToLowerLayer:sum(packetBytes) 0
scalar SingleCell_Standalone_D2D.ueD2DTx[0].cellularNic.rlc.tm sentPacketToUpperLayer:count 0
scalar SingleCell_Standalone_D2D.ueD2DTx[0].cellularNic.rlc.tm sentPacketToUpperLayer:sum(packetBytes) 0
scalar SingleCell_Standalone_D2D.ueD2DTx[0].cellularNic.rlc.tm receivedPacketFromLowerLayer:count 0
scalar SingleCell_Standalone_D2D.ueD2DTx[0].cellularNic.rlc.tm receivedPacketFromLowerLayer:sum(packetBytes) 0
scalar SingleCell_Standalone_D2D.ueD2DTx[0].cellularNic.rlc.tm receivedPacketFromUpperLayer:count 0
scalar SingleCell_Standalone_D2D.ueD2DTx[0].cellularNic.rlc.tm receivedPacketFromUpperLayer:sum(packetBytes) 0
scalar SingleCell_Standalone_D2D.ueD2DTx[0].cellularNic.rlc.um rlcCellThroughputD2D:mean -nan
scalar SingleCell_Standalone_D2D.ueD2DTx[0].cellularNic.rlc.um rlcCellPacketLossD2D:mean -nan
scalar SingleCell_Standalone_D2D.ueD2DTx[0].cellularNic.rlc.um rlcPduThroughputD2D:mean -nan
scalar SingleCell_Standalone_D2D.ueD2DTx[0].cellularNic.rlc.um rlcPduDelayD2D:mean -nan
scalar SingleCell_Standalone_D2D.ueD2DTx[0].cellularNic.rlc.um rlcThroughputD2D:mean -nan
scalar SingleCell_Standalone_D2D.ueD2DTx[0].cellularNic.rlc.um rlcDelayD2D:mean -nan
scalar SingleCell_Standalone_D2D.ueD2DTx[0].cellularNic.rlc.um rlcPduPacketLossD2D:mean -nan
scalar SingleCell_Standalone_D2D.ueD2DTx[0].cellularNic.rlc.um rlcPacketLossD2D:mean -nan
scalar SingleCell_Standalone_D2D.ueD2DTx[0].cellularNic.rlc.um rlcPacketLossTotal:mean -nan
scalar SingleCell_Standalone_D2D.ueD2DTx[0].cellularNic.rlc.um rlcCellThroughputUl:mean -nan
scalar SingleCell_Standalone_D2D.ueD2DTx[0].cellularNic.rlc.um rlcCellThroughputDl:mean -nan
scalar SingleCell_Standalone_D2D.ueD2DTx[0].cellularNic.rlc.um rlcPduThroughputUl:mean -nan
scalar SingleCell_Standalone_D2D.ueD2DTx[0].cellularNic.rlc.um rlcPduThroughputDl:mean -nan
scalar SingleCell_Standalone_D2D.ueD2DTx[0].cellularNic.rlc.um rlcPduDelayUl:mean -nan
scalar SingleCell_Standalone_D2D.ueD2DTx[0].cellularNic.rlc.um rlcPduDelayDl:mean -nan
scalar SingleCell_Standalone_D2D.ueD2DTx[0].cellularNic.rlc.um rlcThroughputUl:mean -nan
scalar SingleCell_Standalone_D2D.ueD2DTx[0].cellularNic.rlc.um rlcThroughputDl:mean -nan
scalar SingleCell_Standalone_D2D.ueD2DTx[0].cellularNic.rlc.um rlcDelayUl:mean -nan
scalar SingleCell_Standalone_D2D.ueD2DTx[0].cellularNic.rlc.um rlcDelayDl:mean -nan
scalar SingleCell_Standalone_D2D.ueD2DTx[0].cellularNic.rlc.um rlcPduPacketLossUl:mean -nan
scalar SingleCell_Standalone_D2D.ueD2DTx[0].cellularNic.rlc.um rlcPduPacketLossDl:mean -nan
scalar SingleCell_Standalone_D2D.ueD2DTx[0].cellularNic.rlc.um rlcPacketLossUl:mean -nan
scalar SingleCell_Standalone_D2D.ueD2DTx[0].cellularNic.rlc.um rlcPacketLossUl:sum 0
scalar SingleCell_Standalone_D2D.ueD2DTx[0].cellularNic.rlc.um rlcPacketLossDl:mean -nan
scalar SingleCell_Standalone_D2D.ueD2DTx[0].cellularNic.rlc.um rlcPacketLossDl:sum 0
scalar SingleCell_Standalone_D2D.ueD2DTx[0].cellularNic.rlc.um rlcCellPacketLossUl:mean -nan
scalar SingleCell_Standalone_D2D.ueD2DTx[0].cellularNic.rlc.um rlcCellPacketLossDl:mean -nan
scalar SingleCell_Standalone_D2D.ueD2DTx[0].cellularNic.rlc.um sentPacketToLowerLayer:count 0
scalar SingleCell_Standalone_D2D.ueD2DTx[0].cellularNic.rlc.um sentPacketToLowerLayer:sum(packetBytes) 0
scalar SingleCell_Standalone_D2D.ueD2DTx[0].cellularNic.rlc.um sentPacketToUpperLayer:count 0
scalar SingleCell_Standalone_D2D.ueD2DTx[0].cellularNic.rlc.um sentPacketToUpperLayer:sum(packetBytes) 0
scalar SingleCell_Standalone_D2D.ueD2DTx[0].cellularNic.rlc.um receivedPacketFromLowerLayer:count 0
scalar SingleCell_Standalone_D2D.ueD2DTx[0].cellularNic.rlc.um receivedPacketFromLowerLayer:sum(packetBytes) 0
scalar SingleCell_Standalone_D2D.ueD2DTx[0].cellularNic.rlc.um receivedPacketFromUpperLayer:count 0
scalar SingleCell_Standalone_D2D.ueD2DTx[0].cellularNic.rlc.um receivedPacketFromUpperLayer:sum(packetBytes) 0
scalar SingleCell_Standalone_D2D.ueD2DTx[0].cellularNic.rlc.am rlcPacketLossTotal:mean -nan
scalar SingleCell_Standalone_D2D.ueD2DTx[0].cellularNic.rlc.am rlcCellThroughputUl:mean -nan
scalar SingleCell_Standalone_D2D.ueD2DTx[0].cellularNic.rlc.am rlcCellThroughputDl:mean -nan
scalar SingleCell_Standalone_D2D.ueD2DTx[0].cellularNic.rlc.am rlcPduThroughputUl:mean -nan
scalar SingleCell_Standalone_D2D.ueD2DTx[0].cellularNic.rlc.am rlcPduThroughputDl:mean -nan
scalar SingleCell_Standalone_D2D.ueD2DTx[0].cellularNic.rlc.am rlcPduDelayUl:mean -nan
scalar SingleCell_Standalone_D2D.ueD2DTx[0].cellularNic.rlc.am rlcPduDelayDl:mean -nan
scalar SingleCell_Standalone_D2D.ueD2DTx[0].cellularNic.rlc.am rlcThroughputUl:mean -nan
scalar SingleCell_Standalone_D2D.ueD2DTx[0].cellularNic.rlc.am rlcThroughputDl:mean -nan
scalar SingleCell_Standalone_D2D.ueD2DTx[0].cellularNic.rlc.am rlcDelayUl:mean -nan
scalar SingleCell_Standalone_D2D.ueD2DTx[0].cellularNic.rlc.am rlcDelayDl:mean -nan
scalar SingleCell_Standalone_D2D.ueD2DTx[0].cellularNic.rlc.am rlcPduPacketLossUl:mean -nan
scalar SingleCell_Standalone_D2D.ueD2DTx[0].cellularNic.rlc.am rlcPduPacketLossDl:mean -nan
scalar SingleCell_Standalone_D2D.ueD2DTx[0].cellularNic.rlc.am rlcPacketLossUl:mean -nan
scalar SingleCell_Standalone_D2D.ueD2DTx[0].cellularNic.rlc.am rlcPacketLossDl:mean -nan
scalar SingleCell_Standalone_D2D.ueD2DTx[0].cellularNic.rlc.am rlcCellPacketLossUl:mean -nan
scalar SingleCell_Standalone_D2D.ueD2DTx[0].cellularNic.rlc.am rlcCellPacketLossDl:mean -nan
scalar SingleCell_Standalone_D2D.ueD2DTx[0].cellularNic.mac harqErrorRate_4th_D2D:mean -nan
scalar SingleCell_Standalone_D2D.ueD2DTx[0].cellularNic.mac harqErrorRate_3rd_D2D:mean -nan
scalar SingleCell_Standalone_D2D.ueD2DTx[0].cellularNic.mac harqErrorRate_2nd_D2D:mean -nan
scalar SingleCell_Standalone_D2D.ueD2DTx[0].cellularNic.mac harqErrorRate_1st_D2D:mean -nan
scalar SingleCell_Standalone_D2D.ueD2DTx[0].cellularNic.mac harqErrorRateD2D:mean -nan
scalar SingleCell_Standalone_D2D.ueD2DTx[0].cellularNic.mac macPacketLossD2D:mean -nan
scalar SingleCell_Standalone_D2D.ueD2DTx[0].cellularNic.mac macDelayD2D:mean -nan
scalar SingleCell_Standalone_D2D.ueD2DTx[0].cellularNic.mac macThroughputD2D:mean -nan
scalar SingleCell_Standalone_D2D.ueD2DTx[0].cellularNic.mac harqTxAttemptsUl:mean -nan
scalar SingleCell_Standalone_D2D.ueD2DTx[0].cellularNic.mac harqTxAttemptsDl:mean -nan
scalar SingleCell_Standalone_D2D.ueD2DTx[0].cellularNic.mac harqErrorRate_4th_Ul:mean -nan
scalar SingleCell_Standalone_D2D.ueD2DTx[0].cellularNic.mac harqErrorRate_4th_Dl:mean -nan
scalar SingleCell_Standalone_D2D.ueD2DTx[0].cellularNic.mac harqErrorRate_3rd_Ul:mean -nan
scalar SingleCell_Standalone_D2D.ueD2DTx[0].cellularNic.mac harqErrorRate_3rd_Dl:mean -nan
scalar SingleCell_Standalone_D2D.ueD2DTx[0].cellularNic.mac harqErrorRate_2nd_Ul:mean -nan
scalar SingleCell_Standalone_D2D.ueD2DTx[0].cellularNic.mac harqErrorRate_2nd_Dl:mean -nan
scalar SingleCell_Standalone_D2D.ueD2DTx[0].cellularNic.mac harqErrorRate_1st_Ul:mean -nan
scalar SingleCell_Standalone_D2D.ueD2DTx[0].cellularNic.mac harqErrorRate_1st_Dl:mean -nan
scalar SingleCell_Standalone_D2D.ueD2DTx[0].cellularNic.mac harqErrorRateUl:mean -nan
scalar SingleCell_Standalone_D2D.ueD2DTx[0].cellularNic.mac harqErrorRateDl:mean -nan
scalar SingleCell_Standalone_D2D.ueD2DTx[0].cellularNic.mac macCellPacketLossUl:mean -nan
scalar SingleCell_Standalone_D2D.ueD2DTx[0].cellularNic.mac macCellPacketLossDl:mean -nan
scalar SingleCell_Standalone_D2D.ueD2DTx[0].cellularNic.mac macPacketLossUl:mean -nan
scalar SingleCell_Standalone_D2D.ueD2DTx[0].cellularNic.mac macPacketLossDl:mean -nan
scalar SingleCell_Standalone_D2D.ueD2DTx[0].cellularNic.mac macThroughputUl:mean -nan
scalar SingleCell_Standalone_D2D.ueD2DTx[0].cellularNic.mac macThroughputDl:mean -nan
scalar SingleCell_Standalone_D2D.ueD2DTx[0].cellularNic.mac macDelayUl:mean -nan
scalar SingleCell_Standalone_D2D.ueD2DTx[0].cellularNic.mac macDelayDl:mean -nan
scalar SingleCell_Standalone_D2D.ueD2DTx[0].cellularNic.mac macCellThroughputUl:mean -nan
scalar SingleCell_Standalone_D2D.ueD2DTx[0].cellularNic.mac macCellThroughputDl:mean -nan
scalar SingleCell_Standalone_D2D.ueD2DTx[0].cellularNic.mac rcvdD2DModeSwitchNotification:count 0
scalar SingleCell_Standalone_D2D.ueD2DTx[0].cellularNic.mac sentPacketToLowerLayer:count 0
scalar SingleCell_Standalone_D2D.ueD2DTx[0].cellularNic.mac sentPacketToLowerLayer:sum(packetBytes) 0
scalar SingleCell_Standalone_D2D.ueD2DTx[0].cellularNic.mac sentPacketToUpperLayer:count 0
scalar SingleCell_Standalone_D2D.ueD2DTx[0].cellularNic.mac sentPacketToUpperLayer:sum(packetBytes) 0
scalar SingleCell_Standalone_D2D.ueD2DTx[0].cellularNic.mac receivedPacketFromLowerLayer:count 0
scalar SingleCell_Standalone_D2D.ueD2DTx[0].cellularNic.mac receivedPacketFromLowerLayer:sum(packetBytes) 0
scalar SingleCell_Standalone_D2D.ueD2DTx[0].cellularNic.mac receivedPacketFromUpperLayer:count 0
scalar SingleCell_Standalone_D2D.ueD2DTx[0].cellularNic.mac receivedPacketFromUpperLayer:sum(packetBytes) 0
scalar SingleCell_Standalone_D2D.ueD2DTx[0].cellularNic.mac macBufferOverFlowD2D:mean -nan
scalar SingleCell_Standalone_D2D.ueD2DTx[0].cellularNic.mac macBufferOverFlowUl:mean -nan
scalar SingleCell_Standalone_D2D.ueD2DTx[0].cellularNic.mac macBufferOverFlowDl:mean -nan
scalar SingleCell_Standalone_D2D.ueD2DTx[0].cellularNic.phy distance:mean -nan
scalar SingleCell_Standalone_D2D.ueD2DTx[0].cellularNic.phy averageCqiD2D:mean -nan
scalar SingleCell_Standalone_D2D.ueD2DTx[0].cellularNic.phy averageCqiUl:mean -nan
scalar SingleCell_Standalone_D2D.ueD2DTx[0].cellularNic.phy averageCqiUl:count 0
scalar SingleCell_Standalone_D2D.ueD2DTx[0].cellularNic.phy averageCqiDl:mean -nan
scalar SingleCell_Standalone_D2D.ueD2DTx[0].cellularNic.phy averageCqiDl:count 0
scalar SingleCell_Standalone_D2D.ueD2DTx[0].cellularNic.channelModel[0] measuredSinrUl:mean -nan
scalar SingleCell_Standalone_D2D.ueD2DTx[0].cellularNic.channelModel[0] measuredSinrDl:mean -nan
scalar SingleCell_Standalone_D2D.ueD2DTx[0].cellularNic.channelModel[0] rcvdSinrD2D:mean -nan
scalar SingleCell_Standalone_D2D.ueD2DTx[0].cellularNic.channelModel[0] rcvdSinrUl:mean -nan
scalar SingleCell_Standalone_D2D.ueD2DTx[0].cellularNic.channelModel[0] rcvdSinrDl:mean -nan
scalar SingleCell_Standalone_D2D.ueD2DTx[0].cellularNic.nrRlc.tm rlcPacketLossUl:mean -nan
scalar SingleCell_Standalone_D2D.ueD2DTx[0].cellularNic.nrRlc.tm rlcPacketLossUl:sum 0
scalar SingleCell_Standalone_D2D.ueD2DTx[0].cellularNic.nrRlc.tm rlcPacketLossDl:mean -nan
scalar SingleCell_Standalone_D2D.ueD2DTx[0].cellularNic.nrRlc.tm rlcPacketLossDl:sum 0
scalar SingleCell_Standalone_D2D.ueD2DTx[0].cellularNic.nrRlc.tm sentPacketToLowerLayer:count 0
scalar SingleCell_Standalone_D2D.ueD2DTx[0].cellularNic.nrRlc.tm sentPacketToLowerLayer:sum(packetBytes) 0
scalar SingleCell_Standalone_D2D.ueD2DTx[0].cellularNic.nrRlc.tm sentPacketToUpperLayer:count 0
scalar SingleCell_Standalone_D2D.ueD2DTx[0].cellularNic.nrRlc.tm sentPacketToUpperLayer:sum(packetBytes) 0
scalar SingleCell_Standalone_D2D.ueD2DTx[0].cellularNic.nrRlc.tm receivedPacketFromLowerLayer:count 0
scalar SingleCell_Standalone_D2D.ueD2DTx[0].cellularNic.nrRlc.tm receivedPacketFromLowerLayer:sum(packetBytes) 0
scalar SingleCell_Standalone_D2D.ueD2DTx[0].cellularNic.nrRlc.tm receivedPacketFromUpperLayer:count 0
scalar SingleCell_Standalone_D2D.ueD2DTx[0].cellularNic.nrRlc.tm receivedPacketFromUpperLayer:sum(packetBytes) 0
scalar SingleCell_Standalone_D2D.ueD2DTx[0].cellularNic.nrRlc.um rlcCellThroughputD2D:mean -nan
scalar SingleCell_Standalone_D2D.ueD2DTx[0].cellularNic.nrRlc.um rlcCellPacketLossD2D:mean -nan
scalar SingleCell_Standalone_D2D.ueD2DTx[0].cellularNic.nrRlc.um rlcPduThroughputD2D:mean -nan
scalar SingleCell_Standalone_D2D.ueD2DTx[0].cellularNic.nrRlc.um rlcPduDelayD2D:mean -nan
scalar SingleCell_Standalone_D2D.ueD2DTx[0].cellularNic.nrRlc.um rlcThroughputD2D:mean -nan
scalar SingleCell_Standalone_D2D.ueD2DTx[0].cellularNic.nrRlc.um rlcDelayD2D:mean -nan
scalar SingleCell_Standalone_D2D.ueD2DTx[0].cellularNic.nrRlc.um rlcPduPacketLossD2D:mean -nan
scalar SingleCell_Standalone_D2D.ueD2DTx[0].cellularNic.nrRlc.um rlcPacketLossD2D:mean -nan
scalar SingleCell_Standalone_D2D.ueD2DTx[0].cellularNic.nrRlc.um rlcPacketLossTotal:mean 0
scalar SingleCell_Standalone_D2D.ueD2DTx[0].cellularNic.nrRlc.um rlcCellThroughputUl:mean -nan
scalar SingleCell_Standalone_D2D.ueD2DTx[0].cellularNic.nrRlc.um rlcCellThroughputDl:mean -nan
scalar SingleCell_Standalone_D2D.ueD2DTx[0].cellularNic.nrRlc.um rlcPduThroughputUl:mean 0
scalar SingleCell_Standalone_D2D.ueD2DTx[0].cellularNic.nrRlc.um rlcPduThroughputDl:mean 0
scalar SingleCell_Standalone_D2D.ueD2DTx[0].cellularNic.nrRlc.um rlcPduDelayUl:mean 0.0039999999999996878
scalar SingleCell_Standalone_D2D.ueD2DTx[0].cellularNic.nrRlc.um rlcPduDelayDl:mean 0.0039999999999997312
scalar SingleCell_Standalone_D2D.ueD2DTx[0].cellularNic.nrRlc.um rlcThroughputUl:mean 195006.12293652841
scalar SingleCell_Standalone_D2D.ueD2DTx[0].cellularNic.nrRlc.um rlcThroughputDl:mean 13821.380367661732
scalar SingleCell_Standalone_D2D.ueD2DTx[0].cellularNic.nrRlc.um rlcDelayUl:mean 0.016294688522665704
scalar SingleCell_Standalone_D2D.ueD2DTx[0].cellularNic.nrRlc.um rlcDelayDl:mean 0.01576586164551666
scalar SingleCell_Standalone_D2D.ueD2DTx[0].cellularNic.nrRlc.um rlcPduPacketLossUl:mean 0
scalar SingleCell_Standalone_D2D.ueD2DTx[0].cellularNic.nrRlc.um rlcPduPacketLossDl:mean 0
scalar SingleCell_Standalone_D2D.ueD2DTx[0].cellularNic.nrRlc.um rlcPacketLossUl:mean 0
scalar SingleCell_Standalone_D2D.ueD2DTx[0].cellularNic.nrRlc.um rlcPacketLossUl:sum 0
scalar SingleCell_Standalone_D2D.ueD2DTx[0].cellularNic.nrRlc.um rlcPacketLossDl:mean 0
scalar SingleCell_Standalone_D2D.ueD2DTx[0].cellularNic.nrRlc.um rlcPacketLossDl:sum 0
scalar SingleCell_Standalone_D2D.ueD2DTx[0].cellularNic.nrRlc.um rlcCellPacketLossUl:mean -nan
scalar SingleCell_Standalone_D2D.ueD2DTx[0].cellularNic.nrRlc.um rlcCellPacketLossDl:mean -nan
scalar SingleCell_Standalone_D2D.ueD2DTx[0].cellularNic.nrRlc.um sentPacketToLowerLayer:count 3456
scalar SingleCell_Standalone_D2D.ueD2DTx[0].cellularNic.nrRlc.um sentPacketToLowerLayer:sum(packetBytes) 4241601
scalar SingleCell_Standalone_D2D.ueD2DTx[0].cellularNic.nrRlc.um sentPacketToUpperLayer:count 7329
scalar SingleCell_Standalone_D2D.ueD2DTx[0].cellularNic.nrRlc.um sentPacketToUpperLayer:sum(packetBytes) 300493
scalar SingleCell_Standalone_D2D.ueD2DTx[0].cellularNic.nrRlc.um receivedPacketFromLowerLayer:count 2588
scalar SingleCell_Standalone_D2D.ueD2DTx[0].cellularNic.nrRlc.um receivedPacketFromLowerLayer:sum(packetBytes) 305669
scalar SingleCell_Standalone_D2D.ueD2DTx[0].cellularNic.nrRlc.um receivedPacketFromUpperLayer:count 7344
scalar SingleCell_Standalone_D2D.ueD2DTx[0].cellularNic.nrRlc.um receivedPacketFromUpperLayer:sum(packetBytes) 4236420
scalar SingleCell_Standalone_D2D.ueD2DTx[0].cellularNic.nrRlc.am rlcPacketLossTotal:mean -nan
scalar SingleCell_Standalone_D2D.ueD2DTx[0].cellularNic.nrRlc.am rlcCellThroughputUl:mean -nan
scalar SingleCell_Standalone_D2D.ueD2DTx[0].cellularNic.nrRlc.am rlcCellThroughputDl:mean -nan
scalar SingleCell_Standalone_D2D.ueD2DTx[0].cellularNic.nrRlc.am rlcPduThroughputUl:mean -nan
scalar SingleCell_Standalone_D2D.ueD2DTx[0].cellularNic.nrRlc.am rlcPduThroughputDl:mean -nan
scalar SingleCell_Standalone_D2D.ueD2DTx[0].cellularNic.nrRlc.am rlcPduDelayUl:mean -nan
scalar SingleCell_Standalone_D2D.ueD2DTx[0].cellularNic.nrRlc.am rlcPduDelayDl:mean -nan
scalar SingleCell_Standalone_D2D.ueD2DTx[0].cellularNic.nrRlc.am rlcThroughputUl:mean -nan
scalar SingleCell_Standalone_D2D.ueD2DTx[0].cellularNic.nrRlc.am rlcThroughputDl:mean -nan
scalar SingleCell_Standalone_D2D.ueD2DTx[0].cellularNic.nrRlc.am rlcDelayUl:mean -nan
scalar SingleCell_Standalone_D2D.ueD2DTx[0].cellularNic.nrRlc.am rlcDelayDl:mean -nan
scalar SingleCell_Standalone_D2D.ueD2DTx[0].cellularNic.nrRlc.am rlcPduPacketLossUl:mean -nan
scalar SingleCell_Standalone_D2D.ueD2DTx[0].cellularNic.nrRlc.am rlcPduPacketLossDl:mean -nan
scalar SingleCell_Standalone_D2D.ueD2DTx[0].cellularNic.nrRlc.am rlcPacketLossUl:mean -nan
scalar SingleCell_Standalone_D2D.ueD2DTx[0].cellularNic.nrRlc.am rlcPacketLossDl:mean -nan
scalar SingleCell_Standalone_D2D.ueD2DTx[0].cellularNic.nrRlc.am rlcCellPacketLossUl:mean -nan
scalar SingleCell_Standalone_D2D.ueD2DTx[0].cellularNic.nrRlc.am rlcCellPacketLossDl:mean -nan
scalar SingleCell_Standalone_D2D.ueD2DTx[0].cellularNic.nrMac harqErrorRate_4th_D2D:mean -nan
scalar SingleCell_Standalone_D2D.ueD2DTx[0].cellularNic.nrMac harqErrorRate_3rd_D2D:mean -nan
scalar SingleCell_Standalone_D2D.ueD2DTx[0].cellularNic.nrMac harqErrorRate_2nd_D2D:mean -nan
scalar SingleCell_Standalone_D2D.ueD2DTx[0].cellularNic.nrMac harqErrorRate_1st_D2D:mean -nan
scalar SingleCell_Standalone_D2D.ueD2DTx[0].cellularNic.nrMac harqErrorRateD2D:mean -nan
scalar SingleCell_Standalone_D2D.ueD2DTx[0].cellularNic.nrMac macPacketLossD2D:mean -nan
scalar SingleCell_Standalone_D2D.ueD2DTx[0].cellularNic.nrMac macDelayD2D:mean -nan
scalar SingleCell_Standalone_D2D.ueD2DTx[0].cellularNic.nrMac macThroughputD2D:mean -nan
scalar SingleCell_Standalone_D2D.ueD2DTx[0].cellularNic.nrMac harqTxAttemptsUl:mean 1
scalar SingleCell_Standalone_D2D.ueD2DTx[0].cellularNic.nrMac harqTxAttemptsDl:mean 1
scalar SingleCell_Standalone_D2D.ueD2DTx[0].cellularNic.nrMac harqErrorRate_4th_Ul:mean -nan
scalar SingleCell_Standalone_D2D.ueD2DTx[0].cellularNic.nrMac harqErrorRate_4th_Dl:mean -nan
scalar SingleCell_Standalone_D2D.ueD2DTx[0].cellularNic.nrMac harqErrorRate_3rd_Ul:mean -nan
scalar SingleCell_Standalone_D2D.ueD2DTx[0].cellularNic.nrMac harqErrorRate_3rd_Dl:mean -nan
scalar SingleCell_Standalone_D2D.ueD2DTx[0].cellularNic.nrMac harqErrorRate_2nd_Ul:mean -nan
scalar SingleCell_Standalone_D2D.ueD2DTx[0].cellularNic.nrMac harqErrorRate_2nd_Dl:mean -nan
scalar SingleCell_Standalone_D2D.ueD2DTx[0].cellularNic.nrMac harqErrorRate_1st_Ul:mean 0
scalar SingleCell_Standalone_D2D.ueD2DTx[0].cellularNic.nrMac harqErrorRate_1st_Dl:mean 0
scalar SingleCell_Standalone_D2D.ueD2DTx[0].cellularNic.nrMac harqErrorRateUl:mean 0
scalar SingleCell_Standalone_D2D.ueD2DTx[0].cellularNic.nrMac harqErrorRateDl:mean 0
scalar SingleCell_Standalone_D2D.ueD2DTx[0].cellularNic.nrMac macCellPacketLossUl:mean -nan
scalar SingleCell_Standalone_D2D.ueD2DTx[0].cellularNic.nrMac macCellPacketLossDl:mean -nan
scalar SingleCell_Standalone_D2D.ueD2DTx[0].cellularNic.nrMac macPacketLossUl:mean 0
scalar SingleCell_Standalone_D2D.ueD2DTx[0].cellularNic.nrMac macPacketLossDl:mean 0
scalar SingleCell_Standalone_D2D.ueD2DTx[0].cellularNic.nrMac macThroughputUl:mean 195606.76744109453
scalar SingleCell_Standalone_D2D.ueD2DTx[0].cellularNic.nrMac macThroughputDl:mean 14297.943858572367
scalar SingleCell_Standalone_D2D.ueD2DTx[0].cellularNic.nrMac macDelayUl:mean 0.0039999999999996878
scalar SingleCell_Standalone_D2D.ueD2DTx[0].cellularNic.nrMac macDelayDl:mean 0.0039999999999997312
scalar SingleCell_Standalone_D2D.ueD2DTx[0].cellularNic.nrMac macCellThroughputUl:mean -nan
scalar SingleCell_Standalone_D2D.ueD2DTx[0].cellularNic.nrMac macCellThroughputDl:mean -nan
scalar SingleCell_Standalone_D2D.ueD2DTx[0].cellularNic.nrMac rcvdD2DModeSwitchNotification:count 0
scalar SingleCell_Standalone_D2D.ueD2DTx[0].cellularNic.nrMac sentPacketToLowerLayer:count 7774
scalar SingleCell_Standalone_D2D.ueD2DTx[0].cellularNic.nrMac sentPacketToLowerLayer:sum(packetBytes) 4252831
scalar SingleCell_Standalone_D2D.ueD2DTx[0].cellularNic.nrMac sentPacketToUpperLayer:count 6044
scalar SingleCell_Standalone_D2D.ueD2DTx[0].cellularNic.nrMac sentPacketToUpperLayer:sum(packetBytes) 309125
scalar SingleCell_Standalone_D2D.ueD2DTx[0].cellularNic.nrMac receivedPacketFromLowerLayer:count 11231
scalar SingleCell_Standalone_D2D.ueD2DTx[0].cellularNic.nrMac receivedPacketFromLowerLayer:sum(packetBytes) 319614
scalar SingleCell_Standalone_D2D.ueD2DTx[0].cellularNic.nrMac receivedPacketFromUpperLayer:count 10800
scalar SingleCell_Standalone_D2D.ueD2DTx[0].cellularNic.nrMac receivedPacketFromUpperLayer:sum(packetBytes) 8492709
scalar SingleCell_Standalone_D2D.ueD2DTx[0].cellularNic.nrMac macBufferOverFlowD2D:mean -nan
scalar SingleCell_Standalone_D2D.ueD2DTx[0].cellularNic.nrMac macBufferOverFlowUl:mean -nan
scalar SingleCell_Standalone_D2D.ueD2DTx[0].cellularNic.nrMac macBufferOverFlowDl:mean -nan
scalar SingleCell_Standalone_D2D.ueD2DTx[0].cellularNic.nrPhy distance:mean -nan
scalar SingleCell_Standalone_D2D.ueD2DTx[0].cellularNic.nrPhy averageCqiD2D:mean -nan
scalar SingleCell_Standalone_D2D.ueD2DTx[0].cellularNic.nrPhy averageCqiUl:mean 15
scalar SingleCell_Standalone_D2D.ueD2DTx[0].cellularNic.nrPhy averageCqiUl:count 3456
scalar SingleCell_Standalone_D2D.ueD2DTx[0].cellularNic.nrPhy averageCqiDl:mean 15
scalar SingleCell_Standalone_D2D.ueD2DTx[0].cellularNic.nrPhy averageCqiDl:count 2589
scalar SingleCell_Standalone_D2D.ueD2DTx[0].cellularNic.nrChannelModel[0] measuredSinrUl:mean 52.31336667191659
scalar SingleCell_Standalone_D2D.ueD2DTx[0].cellularNic.nrChannelModel[0] measuredSinrDl:mean 56.215265208360499
scalar SingleCell_Standalone_D2D.ueD2DTx[0].cellularNic.nrChannelModel[0] rcvdSinrD2D:mean -nan
scalar SingleCell_Standalone_D2D.ueD2DTx[0].cellularNic.nrChannelModel[0] rcvdSinrUl:mean 53.769037425706529
scalar SingleCell_Standalone_D2D.ueD2DTx[0].cellularNic.nrChannelModel[0] rcvdSinrDl:mean 61.288232374057301
scalar SingleCell_Standalone_D2D.ueD2DTx[0].cellularNic packetDropInterfaceDown:count 0
scalar SingleCell_Standalone_D2D.ueD2DTx[0].cellularNic packetDropInterfaceDown:sum(packetBytes) 0
scalar SingleCell_Standalone_D2D.ueD2DTx[0].cellularNic packetDropNoCarrier:count 0
scalar SingleCell_Standalone_D2D.ueD2DTx[0].cellularNic packetDropNoCarrier:sum(packetBytes) 0
scalar SingleCell_Standalone_D2D.ueD2DTx[0].encap pauseSent:count 0
scalar SingleCell_Standalone_D2D.ueD2DTx[0].encap pauseSent:sum 0
scalar SingleCell_Standalone_D2D.ueD2DTx[0].encap decapPk:count 0
scalar SingleCell_Standalone_D2D.ueD2DTx[0].encap decapPk:sum(packetBytes) 0
scalar SingleCell_Standalone_D2D.ueD2DTx[0].encap encapPk:count 0
scalar SingleCell_Standalone_D2D.ueD2DTx[0].encap encapPk:sum(packetBytes) 0
scalar SingleCell_Standalone_D2D.ueD2DTx[0].ipv4.ip packetDropAddressResolutionFailed:count 0
scalar SingleCell_Standalone_D2D.ueD2DTx[0].ipv4.ip packetDropAddressResolutionFailed:sum(packetBytes) 0
scalar SingleCell_Standalone_D2D.ueD2DTx[0].ipv4.ip packetDropHopLimitReached:count 0
scalar SingleCell_Standalone_D2D.ueD2DTx[0].ipv4.ip packetDropHopLimitReached:sum(packetBytes) 0
scalar SingleCell_Standalone_D2D.ueD2DTx[0].ipv4.ip packetDropForwardingDisabled:count 0
scalar SingleCell_Standalone_D2D.ueD2DTx[0].ipv4.ip packetDropForwardingDisabled:sum(packetBytes) 0
scalar SingleCell_Standalone_D2D.ueD2DTx[0].ipv4.ip packetDropNoInterfaceFound:count 0
scalar SingleCell_Standalone_D2D.ueD2DTx[0].ipv4.ip packetDropNoInterfaceFound:sum(packetBytes) 0
scalar SingleCell_Standalone_D2D.ueD2DTx[0].ipv4.ip packetDropNoRouteFound:count 0
scalar SingleCell_Standalone_D2D.ueD2DTx[0].ipv4.ip packetDropNoRouteFound:sum(packetBytes) 0
scalar SingleCell_Standalone_D2D.ueD2DTx[0].ipv4.ip packetDropUndefined:count 0
scalar SingleCell_Standalone_D2D.ueD2DTx[0].ipv4.ip packetDropUndefined:sum(packetBytes) 0
scalar SingleCell_Standalone_D2D.ueD2DTx[0].ipv4.arp arpResolutionFailed:count 0
scalar SingleCell_Standalone_D2D.ueD2DTx[0].ipv4.arp arpResolutionCompleted:count 0
scalar SingleCell_Standalone_D2D.ueD2DTx[0].ipv4.arp arpResolutionInitiated:count 0
scalar SingleCell_Standalone_D2D.ueD2DTx[0].ipv4.arp arpReplySent:count 0
scalar SingleCell_Standalone_D2D.ueD2DTx[0].ipv4.arp arpReplySent:sum(packetBytes) 0
scalar SingleCell_Standalone_D2D.ueD2DTx[0].ipv4.arp arpRequestSent:count 0
scalar SingleCell_Standalone_D2D.ueD2DTx[0].ipv4.arp arpRequestSent:sum(packetBytes) 0
scalar SingleCell_Standalone_D2D.ueD2DTx[0].udp packetReceived:count 0
scalar SingleCell_Standalone_D2D.ueD2DTx[0].udp packetReceived:sum(packetBytes) 0
scalar SingleCell_Standalone_D2D.ueD2DTx[0].udp packetSent:count 0
scalar SingleCell_Standalone_D2D.ueD2DTx[0].udp packetSent:sum(packetBytes) 0
scalar SingleCell_Standalone_D2D.ueD2DTx[0].udp passedUpPk:count 0
scalar SingleCell_Standalone_D2D.ueD2DTx[0].udp droppedPkWrongPort:count 0
scalar SingleCell_Standalone_D2D.ueD2DTx[0].udp droppedPkBadChecksum:count 0
scalar SingleCell_Standalone_D2D.ueD2DTx[0].app[0] bytesRcvd 0
scalar SingleCell_Standalone_D2D.ueD2DTx[0].app[0] bytesSent 1073741824
scalar SingleCell_Standalone_D2D.ueD2DTx[0].app[0] packetReceived:count 0
scalar SingleCell_Standalone_D2D.ueD2DTx[0].app[0] packetReceived:sum(packetBytes) 0
scalar SingleCell_Standalone_D2D.ueD2DTx[0].app[0] packetSent:count 1
scalar SingleCell_Standalone_D2D.ueD2DTx[0].app[0] packetSent:sum(packetBytes) 1073741824
scalar SingleCell_Standalone_D2D.ueD2DRx[0].lo[0].lo rcvdPkFromHl:count 0
scalar SingleCell_Standalone_D2D.ueD2DRx[0].lo[0].lo rcvdPkFromHl:sum(packetBytes) 0
scalar SingleCell_Standalone_D2D.ueD2DRx[0].lo[0].lo passedUpPk:count 0
scalar SingleCell_Standalone_D2D.ueD2DRx[0].lo[0].lo passedUpPk:sum(packetBytes) 0
scalar SingleCell_Standalone_D2D.ueD2DRx[0].lo[0] packetDropInterfaceDown:count 0
scalar SingleCell_Standalone_D2D.ueD2DRx[0].lo[0] packetDropInterfaceDown:sum(packetBytes) 0
scalar SingleCell_Standalone_D2D.ueD2DRx[0].lo[0] packetDropNoCarrier:count 0
scalar SingleCell_Standalone_D2D.ueD2DRx[0].lo[0] packetDropNoCarrier:sum(packetBytes) 0
scalar SingleCell_Standalone_D2D.ueD2DRx[0].cellularNic.pdcp sentPacketToLowerLayer:count 7337
scalar SingleCell_Standalone_D2D.ueD2DRx[0].cellularNic.pdcp sentPacketToLowerLayer:sum(packetBytes) 300821
scalar SingleCell_Standalone_D2D.ueD2DRx[0].cellularNic.pdcp sentPacketToUpperLayer:count 7338
scalar SingleCell_Standalone_D2D.ueD2DRx[0].cellularNic.pdcp sentPacketToUpperLayer:sum(packetBytes) 4225620
scalar SingleCell_Standalone_D2D.ueD2DRx[0].cellularNic.pdcp receivedPacketFromLowerLayer:count 7338
scalar SingleCell_Standalone_D2D.ueD2DRx[0].cellularNic.pdcp receivedPacketFromLowerLayer:sum(packetBytes) 4232958
scalar SingleCell_Standalone_D2D.ueD2DRx[0].cellularNic.pdcp receivedPacketFromUpperLayer:count 7337
scalar SingleCell_Standalone_D2D.ueD2DRx[0].cellularNic.pdcp receivedPacketFromUpperLayer:sum(packetBytes) 293484
scalar SingleCell_Standalone_D2D.ueD2DRx[0].cellularNic.rlc.tm rlcPacketLossUl:mean -nan
scalar SingleCell_Standalone_D2D.ueD2DRx[0].cellularNic.rlc.tm rlcPacketLossUl:sum 0
scalar SingleCell_Standalone_D2D.ueD2DRx[0].cellularNic.rlc.tm rlcPacketLossDl:mean -nan
scalar SingleCell_Standalone_D2D.ueD2DRx[0].cellularNic.rlc.tm rlcPacketLossDl:sum 0
scalar SingleCell_Standalone_D2D.ueD2DRx[0].cellularNic.rlc.tm sentPacketToLowerLayer:count 0
scalar SingleCell_Standalone_D2D.ueD2DRx[0].cellularNic.rlc.tm sentPacketToLowerLayer:sum(packetBytes) 0
scalar SingleCell_Standalone_D2D.ueD2DRx[0].cellularNic.rlc.tm sentPacketToUpperLayer:count 0
scalar SingleCell_Standalone_D2D.ueD2DRx[0].cellularNic.rlc.tm sentPacketToUpperLayer:sum(packetBytes) 0
scalar SingleCell_Standalone_D2D.ueD2DRx[0].cellularNic.rlc.tm receivedPacketFromLowerLayer:count 0
scalar SingleCell_Standalone_D2D.ueD2DRx[0].cellularNic.rlc.tm receivedPacketFromLowerLayer:sum(packetBytes) 0
scalar SingleCell_Standalone_D2D.ueD2DRx[0].cellularNic.rlc.tm receivedPacketFromUpperLayer:count 0
scalar SingleCell_Standalone_D2D.ueD2DRx[0].cellularNic.rlc.tm receivedPacketFromUpperLayer:sum(packetBytes) 0
scalar SingleCell_Standalone_D2D.ueD2DRx[0].cellularNic.rlc.um rlcCellThroughputD2D:mean -nan
scalar SingleCell_Standalone_D2D.ueD2DRx[0].cellularNic.rlc.um rlcCellPacketLossD2D:mean -nan
scalar SingleCell_Standalone_D2D.ueD2DRx[0].cellularNic.rlc.um rlcPduThroughputD2D:mean -nan
scalar SingleCell_Standalone_D2D.ueD2DRx[0].cellularNic.rlc.um rlcPduDelayD2D:mean -nan
scalar SingleCell_Standalone_D2D.ueD2DRx[0].cellularNic.rlc.um rlcThroughputD2D:mean -nan
scalar SingleCell_Standalone_D2D.ueD2DRx[0].cellularNic.rlc.um rlcDelayD2D:mean -nan
scalar SingleCell_Standalone_D2D.ueD2DRx[0].cellularNic.rlc.um rlcPduPacketLossD2D:mean -nan
scalar SingleCell_Standalone_D2D.ueD2DRx[0].cellularNic.rlc.um rlcPacketLossD2D:mean -nan
scalar SingleCell_Standalone_D2D.ueD2DRx[0].cellularNic.rlc.um rlcPacketLossTotal:mean -nan
scalar SingleCell_Standalone_D2D.ueD2DRx[0].cellularNic.rlc.um rlcCellThroughputUl:mean -nan
scalar SingleCell_Standalone_D2D.ueD2DRx[0].cellularNic.rlc.um rlcCellThroughputDl:mean -nan
scalar SingleCell_Standalone_D2D.ueD2DRx[0].cellularNic.rlc.um rlcPduThroughputUl:mean -nan
scalar SingleCell_Standalone_D2D.ueD2DRx[0].cellularNic.rlc.um rlcPduThroughputDl:mean -nan
scalar SingleCell_Standalone_D2D.ueD2DRx[0].cellularNic.rlc.um rlcPduDelayUl:mean -nan
scalar SingleCell_Standalone_D2D.ueD2DRx[0].cellularNic.rlc.um rlcPduDelayDl:mean -nan
scalar SingleCell_Standalone_D2D.ueD2DRx[0].cellularNic.rlc.um rlcThroughputUl:mean -nan
scalar SingleCell_Standalone_D2D.ueD2DRx[0].cellularNic.rlc.um rlcThroughputDl:mean -nan
scalar SingleCell_Standalone_D2D.ueD2DRx[0].cellularNic.rlc.um rlcDelayUl:mean -nan
scalar SingleCell_Standalone_D2D.ueD2DRx[0].cellularNic.rlc.um rlcDelayDl:mean -nan
scalar SingleCell_Standalone_D2D.ueD2DRx[0].cellularNic.rlc.um rlcPduPacketLossUl:mean -nan
scalar SingleCell_Standalone_D2D.ueD2DRx[0].cellularNic.rlc.um rlcPduPacketLossDl:mean -nan
scalar SingleCell_Standalone_D2D.ueD2DRx[0].cellularNic.rlc.um rlcPacketLossUl:mean -nan
scalar SingleCell_Standalone_D2D.ueD2DRx[0].cellularNic.rlc.um rlcPacketLossUl:sum 0
scalar SingleCell_Standalone_D2D.ueD2DRx[0].cellularNic.rlc.um rlcPacketLossDl:mean -nan
scalar SingleCell_Standalone_D2D.ueD2DRx[0].cellularNic.rlc.um rlcPacketLossDl:sum 0
scalar SingleCell_Standalone_D2D.ueD2DRx[0].cellularNic.rlc.um rlcCellPacketLossUl:mean -nan
scalar SingleCell_Standalone_D2D.ueD2DRx[0].cellularNic.rlc.um rlcCellPacketLossDl:mean -nan
scalar SingleCell_Standalone_D2D.ueD2DRx[0].cellularNic.rlc.um sentPacketToLowerLayer:count 0
[...]
scalar SingleCell_Standalone_D2D.ueD2DRx[0].tcp.conn-21 sndNxt:vector:endtime nan
scalar SingleCell_Standalone_D2D.ueD2DRx[0].tcp.conn-21 sndAck:vector:count 7337
scalar SingleCell_Standalone_D2D.ueD2DRx[0].tcp.conn-21 sndAck:vector:sum 14521830620
scalar SingleCell_Standalone_D2D.ueD2DRx[0].tcp.conn-21 sndAck:vector:sumweights 7337
scalar SingleCell_Standalone_D2D.ueD2DRx[0].tcp.conn-21 sndAck:vector:mean 1979260
scalar SingleCell_Standalone_D2D.ueD2DRx[0].tcp.conn-21 sndAck:vector:stddev 1135330.4342119964
scalar SingleCell_Standalone_D2D.ueD2DRx[0].tcp.conn-21 sndAck:vector:min 13212
scalar SingleCell_Standalone_D2D.ueD2DRx[0].tcp.conn-21 sndAck:vector:max 3945308
scalar SingleCell_Standalone_D2D.ueD2DRx[0].tcp.conn-21 sndAck:vector:starttime 0.066000000000000003
scalar SingleCell_Standalone_D2D.ueD2DRx[0].tcp.conn-21 sndAck:vector:endtime 19.993000000000002
scalar SingleCell_Standalone_D2D.ueD2DRx[0].tcp.conn-21 rcvSeq:vector:count 7337
scalar SingleCell_Standalone_D2D.ueD2DRx[0].tcp.conn-21 rcvSeq:vector:sum 14517898524
scalar SingleCell_Standalone_D2D.ueD2DRx[0].tcp.conn-21 rcvSeq:vector:sumweights 7337
scalar SingleCell_Standalone_D2D.ueD2DRx[0].tcp.conn-21 rcvSeq:vector:mean 1978724.0730543819
scalar SingleCell_Standalone_D2D.ueD2DRx[0].tcp.conn-21 rcvSeq:vector:stddev 1135330.3077039549
scalar SingleCell_Standalone_D2D.ueD2DRx[0].tcp.conn-21 rcvSeq:vector:min 13212
scalar SingleCell_Standalone_D2D.ueD2DRx[0].tcp.conn-21 rcvSeq:vector:max 3944772
scalar SingleCell_Standalone_D2D.ueD2DRx[0].tcp.conn-21 rcvSeq:vector:starttime 0.094
scalar SingleCell_Standalone_D2D.ueD2DRx[0].tcp.conn-21 rcvSeq:vector:endtime 19.993000000000002
scalar SingleCell_Standalone_D2D.ueD2DRx[0].tcp.conn-21 rcvAck:vector:count 7337
scalar SingleCell_Standalone_D2D.ueD2DRx[0].tcp.conn-21 rcvAck:vector:sum 121067837
scalar SingleCell_Standalone_D2D.ueD2DRx[0].tcp.conn-21 rcvAck:vector:sumweights 7337
scalar SingleCell_Standalone_D2D.ueD2DRx[0].tcp.conn-21 rcvAck:vector:mean 16501
scalar SingleCell_Standalone_D2D.ueD2DRx[0].tcp.conn-21 rcvAck:vector:stddev 0
scalar SingleCell_Standalone_D2D.ueD2DRx[0].tcp.conn-21 rcvAck:vector:min 16501
scalar SingleCell_Standalone_D2D.ueD2DRx[0].tcp.conn-21 rcvAck:vector:max 16501
scalar SingleCell_Standalone_D2D.ueD2DRx[0].tcp.conn-21 rcvAck:vector:starttime 0.094
scalar SingleCell_Standalone_D2D.ueD2DRx[0].tcp.conn-21 rcvAck:vector:endtime 19.993000000000002
scalar SingleCell_Standalone_D2D.ueD2DRx[0].tcp.conn-21 unacked:vector:count 1
scalar SingleCell_Standalone_D2D.ueD2DRx[0].tcp.conn-21 unacked:vector:sum 0
scalar SingleCell_Standalone_D2D.ueD2DRx[0].tcp.conn-21 unacked:vector:sumweights 1
scalar SingleCell_Standalone_D2D.ueD2DRx[0].tcp.conn-21 unacked:vector:mean 0
scalar SingleCell_Standalone_D2D.ueD2DRx[0].tcp.conn-21 unacked:vector:stddev nan
scalar SingleCell_Standalone_D2D.ueD2DRx[0].tcp.conn-21 unacked:vector:min 0
scalar SingleCell_Standalone_D2D.ueD2DRx[0].tcp.conn-21 unacked:vector:max 0
scalar SingleCell_Standalone_D2D.ueD2DRx[0].tcp.conn-21 unacked:vector:starttime 0.094
scalar SingleCell_Standalone_D2D.ueD2DRx[0].tcp.conn-21 unacked:vector:endtime 0.094
scalar SingleCell_Standalone_D2D.ueD2DRx[0].tcp.conn-21 dupAcks:vector:count 7336
scalar SingleCell_Standalone_D2D.ueD2DRx[0].tcp.conn-21 dupAcks:vector:sum 0
scalar SingleCell_Standalone_D2D.ueD2DRx[0].tcp.conn-21 dupAcks:vector:sumweights 7336
scalar SingleCell_Standalone_D2D.ueD2DRx[0].tcp.conn-21 dupAcks:vector:mean 0
scalar SingleCell_Standalone_D2D.ueD2DRx[0].tcp.conn-21 dupAcks:vector:stddev 0
scalar SingleCell_Standalone_D2D.ueD2DRx[0].tcp.conn-21 dupAcks:vector:min 0
scalar SingleCell_Standalone_D2D.ueD2DRx[0].tcp.conn-21 dupAcks:vector:max 0
scalar SingleCell_Standalone_D2D.ueD2DRx[0].tcp.conn-21 dupAcks:vector:starttime 0.496
scalar SingleCell_Standalone_D2D.ueD2DRx[0].tcp.conn-21 dupAcks:vector:endtime 19.993000000000002
scalar SingleCell_Standalone_D2D.ueD2DRx[0].tcp.conn-21 pipe:vector:count 0
scalar SingleCell_Standalone_D2D.ueD2DRx[0].tcp.conn-21 pipe:vector:sum 0
scalar SingleCell_Standalone_D2D.ueD2DRx[0].tcp.conn-21 pipe:vector:sumweights 0
scalar SingleCell_Standalone_D2D.ueD2DRx[0].tcp.conn-21 pipe:vector:mean -nan
scalar SingleCell_Standalone_D2D.ueD2DRx[0].tcp.conn-21 pipe:vector:stddev nan
scalar SingleCell_Standalone_D2D.ueD2DRx[0].tcp.conn-21 pipe:vector:min inf
scalar SingleCell_Standalone_D2D.ueD2DRx[0].tcp.conn-21 pipe:vector:max -inf
scalar SingleCell_Standalone_D2D.ueD2DRx[0].tcp.conn-21 pipe:vector:starttime nan
scalar SingleCell_Standalone_D2D.ueD2DRx[0].tcp.conn-21 pipe:vector:endtime nan
scalar SingleCell_Standalone_D2D.ueD2DRx[0].tcp.conn-21 sndSacks:vector:count 0
scalar SingleCell_Standalone_D2D.ueD2DRx[0].tcp.conn-21 sndSacks:vector:sum 0
scalar SingleCell_Standalone_D2D.ueD2DRx[0].tcp.conn-21 sndSacks:vector:sumweights 0
scalar SingleCell_Standalone_D2D.ueD2DRx[0].tcp.conn-21 sndSacks:vector:mean -nan
scalar SingleCell_Standalone_D2D.ueD2DRx[0].tcp.conn-21 sndSacks:vector:stddev nan
scalar SingleCell_Standalone_D2D.ueD2DRx[0].tcp.conn-21 sndSacks:vector:min inf
scalar SingleCell_Standalone_D2D.ueD2DRx[0].tcp.conn-21 sndSacks:vector:max -inf
scalar SingleCell_Standalone_D2D.ueD2DRx[0].tcp.conn-21 sndSacks:vector:starttime nan
scalar SingleCell_Standalone_D2D.ueD2DRx[0].tcp.conn-21 sndSacks:vector:endtime nan
scalar SingleCell_Standalone_D2D.ueD2DRx[0].tcp.conn-21 rcvSacks:vector:count 0
scalar SingleCell_Standalone_D2D.ueD2DRx[0].tcp.conn-21 rcvSacks:vector:sum 0
scalar SingleCell_Standalone_D2D.ueD2DRx[0].tcp.conn-21 rcvSacks:vector:sumweights 0
scalar SingleCell_Standalone_D2D.ueD2DRx[0].tcp.conn-21 rcvSacks:vector:mean -nan
scalar SingleCell_Standalone_D2D.ueD2DRx[0].tcp.conn-21 rcvSacks:vector:stddev nan
scalar SingleCell_Standalone_D2D.ueD2DRx[0].tcp.conn-21 rcvSacks:vector:min inf
scalar SingleCell_Standalone_D2D.ueD2DRx[0].tcp.conn-21 rcvSacks:vector:max -inf
scalar SingleCell_Standalone_D2D.ueD2DRx[0].tcp.conn-21 rcvSacks:vector:starttime nan
scalar SingleCell_Standalone_D2D.ueD2DRx[0].tcp.conn-21 rcvSacks:vector:endtime nan
scalar SingleCell_Standalone_D2D.ueD2DRx[0].tcp.conn-21 rcvOooSeg:vector:count 0
scalar SingleCell_Standalone_D2D.ueD2DRx[0].tcp.conn-21 rcvOooSeg:vector:sum 0
scalar SingleCell_Standalone_D2D.ueD2DRx[0].tcp.conn-21 rcvOooSeg:vector:sumweights 0
scalar SingleCell_Standalone_D2D.ueD2DRx[0].tcp.conn-21 rcvOooSeg:vector:mean -nan
scalar SingleCell_Standalone_D2D.ueD2DRx[0].tcp.conn-21 rcvOooSeg:vector:stddev nan
scalar SingleCell_Standalone_D2D.ueD2DRx[0].tcp.conn-21 rcvOooSeg:vector:min inf
scalar SingleCell_Standalone_D2D.ueD2DRx[0].tcp.conn-21 rcvOooSeg:vector:max -inf
scalar SingleCell_Standalone_D2D.ueD2DRx[0].tcp.conn-21 rcvOooSeg:vector:starttime nan
scalar SingleCell_Standalone_D2D.ueD2DRx[0].tcp.conn-21 rcvOooSeg:vector:endtime nan
scalar SingleCell_Standalone_D2D.ueD2DRx[0].tcp.conn-21 rcvNASeg:vector:count 0
scalar SingleCell_Standalone_D2D.ueD2DRx[0].tcp.conn-21 rcvNASeg:vector:sum 0
scalar SingleCell_Standalone_D2D.ueD2DRx[0].tcp.conn-21 rcvNASeg:vector:sumweights 0
scalar SingleCell_Standalone_D2D.ueD2DRx[0].tcp.conn-21 rcvNASeg:vector:mean -nan
scalar SingleCell_Standalone_D2D.ueD2DRx[0].tcp.conn-21 rcvNASeg:vector:stddev nan
scalar SingleCell_Standalone_D2D.ueD2DRx[0].tcp.conn-21 rcvNASeg:vector:min inf
scalar SingleCell_Standalone_D2D.ueD2DRx[0].tcp.conn-21 rcvNASeg:vector:max -inf
scalar SingleCell_Standalone_D2D.ueD2DRx[0].tcp.conn-21 rcvNASeg:vector:starttime nan
scalar SingleCell_Standalone_D2D.ueD2DRx[0].tcp.conn-21 rcvNASeg:vector:endtime nan
scalar SingleCell_Standalone_D2D.ueD2DRx[0].tcp.conn-21 sackedBytes:vector:count 0
scalar SingleCell_Standalone_D2D.ueD2DRx[0].tcp.conn-21 sackedBytes:vector:sum 0
scalar SingleCell_Standalone_D2D.ueD2DRx[0].tcp.conn-21 sackedBytes:vector:sumweights 0
scalar SingleCell_Standalone_D2D.ueD2DRx[0].tcp.conn-21 sackedBytes:vector:mean -nan
scalar SingleCell_Standalone_D2D.ueD2DRx[0].tcp.conn-21 sackedBytes:vector:stddev nan
scalar SingleCell_Standalone_D2D.ueD2DRx[0].tcp.conn-21 sackedBytes:vector:min inf
scalar SingleCell_Standalone_D2D.ueD2DRx[0].tcp.conn-21 sackedBytes:vector:max -inf
scalar SingleCell_Standalone_D2D.ueD2DRx[0].tcp.conn-21 sackedBytes:vector:starttime nan
scalar SingleCell_Standalone_D2D.ueD2DRx[0].tcp.conn-21 sackedBytes:vector:endtime nan
scalar SingleCell_Standalone_D2D.ueD2DRx[0].tcp.conn-21 tcpRcvQueueBytes:vector:count 14673
scalar SingleCell_Standalone_D2D.ueD2DRx[0].tcp.conn-21 tcpRcvQueueBytes:vector:sum 0
scalar SingleCell_Standalone_D2D.ueD2DRx[0].tcp.conn-21 tcpRcvQueueBytes:vector:sumweights 14673
scalar SingleCell_Standalone_D2D.ueD2DRx[0].tcp.conn-21 tcpRcvQueueBytes:vector:mean 0
scalar SingleCell_Standalone_D2D.ueD2DRx[0].tcp.conn-21 tcpRcvQueueBytes:vector:stddev 0
scalar SingleCell_Standalone_D2D.ueD2DRx[0].tcp.conn-21 tcpRcvQueueBytes:vector:min 0
scalar SingleCell_Standalone_D2D.ueD2DRx[0].tcp.conn-21 tcpRcvQueueBytes:vector:max 0
scalar SingleCell_Standalone_D2D.ueD2DRx[0].tcp.conn-21 tcpRcvQueueBytes:vector:starttime 0.066000000000000003
scalar SingleCell_Standalone_D2D.ueD2DRx[0].tcp.conn-21 tcpRcvQueueBytes:vector:endtime 19.993000000000002
scalar SingleCell_Standalone_D2D.ueD2DRx[0].tcp.conn-21 tcpRcvQueueDrops:vector:count 0
scalar SingleCell_Standalone_D2D.ueD2DRx[0].tcp.conn-21 tcpRcvQueueDrops:vector:sum 0
scalar SingleCell_Standalone_D2D.ueD2DRx[0].tcp.conn-21 tcpRcvQueueDrops:vector:sumweights 0
scalar SingleCell_Standalone_D2D.ueD2DRx[0].tcp.conn-21 tcpRcvQueueDrops:vector:mean -nan
scalar SingleCell_Standalone_D2D.ueD2DRx[0].tcp.conn-21 tcpRcvQueueDrops:vector:stddev nan
scalar SingleCell_Standalone_D2D.ueD2DRx[0].tcp.conn-21 tcpRcvQueueDrops:vector:min inf
scalar SingleCell_Standalone_D2D.ueD2DRx[0].tcp.conn-21 tcpRcvQueueDrops:vector:max -inf
scalar SingleCell_Standalone_D2D.ueD2DRx[0].tcp.conn-21 tcpRcvQueueDrops:vector:starttime nan
scalar SingleCell_Standalone_D2D.ueD2DRx[0].tcp.conn-21 tcpRcvQueueDrops:vector:endtime nan
scalar SingleCell_Standalone_D2D.ueD2DRx[0].tcp.conn-21 tcpRcvPayloadBytes:vector:count 7337
scalar SingleCell_Standalone_D2D.ueD2DRx[0].tcp.conn-21 tcpRcvPayloadBytes:vector:sum 3932096
scalar SingleCell_Standalone_D2D.ueD2DRx[0].tcp.conn-21 tcpRcvPayloadBytes:vector:sumweights 7337
scalar SingleCell_Standalone_D2D.ueD2DRx[0].tcp.conn-21 tcpRcvPayloadBytes:vector:mean 535.92694561810004
scalar SingleCell_Standalone_D2D.ueD2DRx[0].tcp.conn-21 tcpRcvPayloadBytes:vector:stddev 6.2575673147311441
scalar SingleCell_Standalone_D2D.ueD2DRx[0].tcp.conn-21 tcpRcvPayloadBytes:vector:min 0
scalar SingleCell_Standalone_D2D.ueD2DRx[0].tcp.conn-21 tcpRcvPayloadBytes:vector:max 536
scalar SingleCell_Standalone_D2D.ueD2DRx[0].tcp.conn-21 tcpRcvPayloadBytes:vector:starttime 0.094
scalar SingleCell_Standalone_D2D.ueD2DRx[0].tcp.conn-21 tcpRcvPayloadBytes:vector:endtime 19.993000000000002
scalar SingleCell_Standalone_D2D.ueD2DRx[0].tcp.conn-21 cwnd:vector:count 0
scalar SingleCell_Standalone_D2D.ueD2DRx[0].tcp.conn-21 cwnd:vector:sum 0
scalar SingleCell_Standalone_D2D.ueD2DRx[0].tcp.conn-21 cwnd:vector:sumweights 0
scalar SingleCell_Standalone_D2D.ueD2DRx[0].tcp.conn-21 cwnd:vector:mean -nan
scalar SingleCell_Standalone_D2D.ueD2DRx[0].tcp.conn-21 cwnd:vector:stddev nan
scalar SingleCell_Standalone_D2D.ueD2DRx[0].tcp.conn-21 cwnd:vector:min inf
scalar SingleCell_Standalone_D2D.ueD2DRx[0].tcp.conn-21 cwnd:vector:max -inf
scalar SingleCell_Standalone_D2D.ueD2DRx[0].tcp.conn-21 cwnd:vector:starttime nan
scalar SingleCell_Standalone_D2D.ueD2DRx[0].tcp.conn-21 cwnd:vector:endtime nan
scalar SingleCell_Standalone_D2D.ueD2DRx[0].tcp.conn-21 ssthresh:vector:count 0
scalar SingleCell_Standalone_D2D.ueD2DRx[0].tcp.conn-21 ssthresh:vector:sum 0
scalar SingleCell_Standalone_D2D.ueD2DRx[0].tcp.conn-21 ssthresh:vector:sumweights 0
scalar SingleCell_Standalone_D2D.ueD2DRx[0].tcp.conn-21 ssthresh:vector:mean -nan
scalar SingleCell_Standalone_D2D.ueD2DRx[0].tcp.conn-21 ssthresh:vector:stddev nan
scalar SingleCell_Standalone_D2D.ueD2DRx[0].tcp.conn-21 ssthresh:vector:min inf
scalar SingleCell_Standalone_D2D.ueD2DRx[0].tcp.conn-21 ssthresh:vector:max -inf
scalar SingleCell_Standalone_D2D.ueD2DRx[0].tcp.conn-21 ssthresh:vector:starttime nan
scalar SingleCell_Standalone_D2D.ueD2DRx[0].tcp.conn-21 ssthresh:vector:endtime nan
scalar SingleCell_Standalone_D2D.ueD2DRx[0].tcp.conn-21 rtt:vector:count 0
scalar SingleCell_Standalone_D2D.ueD2DRx[0].tcp.conn-21 rtt:vector:sum 0
scalar SingleCell_Standalone_D2D.ueD2DRx[0].tcp.conn-21 rtt:vector:sumweights 0
scalar SingleCell_Standalone_D2D.ueD2DRx[0].tcp.conn-21 rtt:vector:mean -nan
scalar SingleCell_Standalone_D2D.ueD2DRx[0].tcp.conn-21 rtt:vector:stddev nan
scalar SingleCell_Standalone_D2D.ueD2DRx[0].tcp.conn-21 rtt:vector:min inf
scalar SingleCell_Standalone_D2D.ueD2DRx[0].tcp.conn-21 rtt:vector:max -inf
scalar SingleCell_Standalone_D2D.ueD2DRx[0].tcp.conn-21 rtt:vector:starttime nan
scalar SingleCell_Standalone_D2D.ueD2DRx[0].tcp.conn-21 rtt:vector:endtime nan
scalar SingleCell_Standalone_D2D.ueD2DRx[0].tcp.conn-21 srtt:vector:count 0
scalar SingleCell_Standalone_D2D.ueD2DRx[0].tcp.conn-21 srtt:vector:sum 0
scalar SingleCell_Standalone_D2D.ueD2DRx[0].tcp.conn-21 srtt:vector:sumweights 0
scalar SingleCell_Standalone_D2D.ueD2DRx[0].tcp.conn-21 srtt:vector:mean -nan
scalar SingleCell_Standalone_D2D.ueD2DRx[0].tcp.conn-21 srtt:vector:stddev nan
scalar SingleCell_Standalone_D2D.ueD2DRx[0].tcp.conn-21 srtt:vector:min inf
scalar SingleCell_Standalone_D2D.ueD2DRx[0].tcp.conn-21 srtt:vector:max -inf
scalar SingleCell_Standalone_D2D.ueD2DRx[0].tcp.conn-21 srtt:vector:starttime nan
scalar SingleCell_Standalone_D2D.ueD2DRx[0].tcp.conn-21 srtt:vector:endtime nan
scalar SingleCell_Standalone_D2D.ueD2DRx[0].tcp.conn-21 rttvar:vector:count 0
scalar SingleCell_Standalone_D2D.ueD2DRx[0].tcp.conn-21 rttvar:vector:sum 0
scalar SingleCell_Standalone_D2D.ueD2DRx[0].tcp.conn-21 rttvar:vector:sumweights 0
scalar SingleCell_Standalone_D2D.ueD2DRx[0].tcp.conn-21 rttvar:vector:mean -nan
scalar SingleCell_Standalone_D2D.ueD2DRx[0].tcp.conn-21 rttvar:vector:stddev nan
scalar SingleCell_Standalone_D2D.ueD2DRx[0].tcp.conn-21 rttvar:vector:min inf
scalar SingleCell_Standalone_D2D.ueD2DRx[0].tcp.conn-21 rttvar:vector:max -inf
scalar SingleCell_Standalone_D2D.ueD2DRx[0].tcp.conn-21 rttvar:vector:starttime nan
scalar SingleCell_Standalone_D2D.ueD2DRx[0].tcp.conn-21 rttvar:vector:endtime nan
scalar SingleCell_Standalone_D2D.ueD2DRx[0].tcp.conn-21 rto:vector:count 0
scalar SingleCell_Standalone_D2D.ueD2DRx[0].tcp.conn-21 rto:vector:sum 0
scalar SingleCell_Standalone_D2D.ueD2DRx[0].tcp.conn-21 rto:vector:sumweights 0
scalar SingleCell_Standalone_D2D.ueD2DRx[0].tcp.conn-21 rto:vector:mean -nan
scalar SingleCell_Standalone_D2D.ueD2DRx[0].tcp.conn-21 rto:vector:stddev nan
scalar SingleCell_Standalone_D2D.ueD2DRx[0].tcp.conn-21 rto:vector:min inf
scalar SingleCell_Standalone_D2D.ueD2DRx[0].tcp.conn-21 rto:vector:max -inf
scalar SingleCell_Standalone_D2D.ueD2DRx[0].tcp.conn-21 rto:vector:starttime nan
scalar SingleCell_Standalone_D2D.ueD2DRx[0].tcp.conn-21 rto:vector:endtime nan
scalar SingleCell_Standalone_D2D.ueD2DRx[0].tcp.conn-21 numRtos:vector:count 0
scalar SingleCell_Standalone_D2D.ueD2DRx[0].tcp.conn-21 numRtos:vector:sum 0
scalar SingleCell_Standalone_D2D.ueD2DRx[0].tcp.conn-21 numRtos:vector:sumweights 0
scalar SingleCell_Standalone_D2D.ueD2DRx[0].tcp.conn-21 numRtos:vector:mean -nan
scalar SingleCell_Standalone_D2D.ueD2DRx[0].tcp.conn-21 numRtos:vector:stddev nan
scalar SingleCell_Standalone_D2D.ueD2DRx[0].tcp.conn-21 numRtos:vector:min inf
scalar SingleCell_Standalone_D2D.ueD2DRx[0].tcp.conn-21 numRtos:vector:max -inf
scalar SingleCell_Standalone_D2D.ueD2DRx[0].tcp.conn-21 numRtos:vector:starttime nan
scalar SingleCell_Standalone_D2D.ueD2DRx[0].tcp.conn-21 numRtos:vector:endtime nan
scalar SingleCell_Standalone_D2D.ueD2DRx[0].tcp.conn-21 load:vector:count 0
scalar SingleCell_Standalone_D2D.ueD2DRx[0].tcp.conn-21 load:vector:sum 0
scalar SingleCell_Standalone_D2D.ueD2DRx[0].tcp.conn-21 load:vector:sumweights 0
scalar SingleCell_Standalone_D2D.ueD2DRx[0].tcp.conn-21 load:vector:mean -nan
scalar SingleCell_Standalone_D2D.ueD2DRx[0].tcp.conn-21 load:vector:stddev nan
scalar SingleCell_Standalone_D2D.ueD2DRx[0].tcp.conn-21 load:vector:min inf
scalar SingleCell_Standalone_D2D.ueD2DRx[0].tcp.conn-21 load:vector:max -inf
scalar SingleCell_Standalone_D2D.ueD2DRx[0].tcp.conn-21 load:vector:starttime nan
scalar SingleCell_Standalone_D2D.ueD2DRx[0].tcp.conn-21 load:vector:endtime nan
scalar SingleCell_Standalone_D2D.ueD2DRx[0].tcp.conn-21 calcLoad:vector:count 0
scalar SingleCell_Standalone_D2D.ueD2DRx[0].tcp.conn-21 calcLoad:vector:sum 0
scalar SingleCell_Standalone_D2D.ueD2DRx[0].tcp.conn-21 calcLoad:vector:sumweights 0
scalar SingleCell_Standalone_D2D.ueD2DRx[0].tcp.conn-21 calcLoad:vector:mean -nan
scalar SingleCell_Standalone_D2D.ueD2DRx[0].tcp.conn-21 calcLoad:vector:stddev nan
scalar SingleCell_Standalone_D2D.ueD2DRx[0].tcp.conn-21 calcLoad:vector:min inf
scalar SingleCell_Standalone_D2D.ueD2DRx[0].tcp.conn-21 calcLoad:vector:max -inf
scalar SingleCell_Standalone_D2D.ueD2DRx[0].tcp.conn-21 calcLoad:vector:starttime nan
scalar SingleCell_Standalone_D2D.ueD2DRx[0].tcp.conn-21 calcLoad:vector:endtime nan
scalar SingleCell_Standalone_D2D.ueD2DRx[0].tcp.conn-21 markingProb:vector:count 0
scalar SingleCell_Standalone_D2D.ueD2DRx[0].tcp.conn-21 markingProb:vector:sum 0
scalar SingleCell_Standalone_D2D.ueD2DRx[0].tcp.conn-21 markingProb:vector:sumweights 0
scalar SingleCell_Standalone_D2D.ueD2DRx[0].tcp.conn-21 markingProb:vector:mean -nan
scalar SingleCell_Standalone_D2D.ueD2DRx[0].tcp.conn-21 markingProb:vector:stddev nan
scalar SingleCell_Standalone_D2D.ueD2DRx[0].tcp.conn-21 markingProb:vector:min inf
scalar SingleCell_Standalone_D2D.ueD2DRx[0].tcp.conn-21 markingProb:vector:max -inf
scalar SingleCell_Standalone_D2D.ueD2DRx[0].tcp.conn-21 markingProb:vector:starttime nan
scalar SingleCell_Standalone_D2D.ueD2DRx[0].tcp.conn-21 markingProb:vector:endtime nan
scalar SingleCell_Standalone_D2D.ueD2DRx[0].app[0].thread_21 packetReceived:vector(packetBytes):count 7336
scalar SingleCell_Standalone_D2D.ueD2DRx[0].app[0].thread_21 packetReceived:vector(packetBytes):sum 3932096
scalar SingleCell_Standalone_D2D.ueD2DRx[0].app[0].thread_21 packetReceived:vector(packetBytes):sumweights 7336
scalar SingleCell_Standalone_D2D.ueD2DRx[0].app[0].thread_21 packetReceived:vector(packetBytes):mean 536
scalar SingleCell_Standalone_D2D.ueD2DRx[0].app[0].thread_21 packetReceived:vector(packetBytes):stddev 0
scalar SingleCell_Standalone_D2D.ueD2DRx[0].app[0].thread_21 packetReceived:vector(packetBytes):min 536
scalar SingleCell_Standalone_D2D.ueD2DRx[0].app[0].thread_21 packetReceived:vector(packetBytes):max 536
scalar SingleCell_Standalone_D2D.ueD2DRx[0].app[0].thread_21 packetReceived:vector(packetBytes):starttime 0.496
scalar SingleCell_Standalone_D2D.ueD2DRx[0].app[0].thread_21 packetReceived:vector(packetBytes):endtime 19.993000000000002
scalar SingleCell_Standalone_D2D.ueD2DRx[0].app[0].thread_21 endToEndDelay:vector:count 7336
scalar SingleCell_Standalone_D2D.ueD2DRx[0].app[0].thread_21 endToEndDelay:vector:sum 72007.186440326142
scalar SingleCell_Standalone_D2D.ueD2DRx[0].app[0].thread_21 endToEndDelay:vector:sumweights 7336
scalar SingleCell_Standalone_D2D.ueD2DRx[0].app[0].thread_21 endToEndDelay:vector:mean 9.815592480960488
scalar SingleCell_Standalone_D2D.ueD2DRx[0].app[0].thread_21 endToEndDelay:vector:stddev 5.6062207404009676
scalar SingleCell_Standalone_D2D.ueD2DRx[0].app[0].thread_21 endToEndDelay:vector:min 0.019156003315999998
scalar SingleCell_Standalone_D2D.ueD2DRx[0].app[0].thread_21 endToEndDelay:vector:max 19.516156003315999
scalar SingleCell_Standalone_D2D.ueD2DRx[0].app[0].thread_21 endToEndDelay:vector:starttime 0.496
scalar SingleCell_Standalone_D2D.ueD2DRx[0].app[0].thread_21 endToEndDelay:vector:endtime 19.993000000000002

