version 3
run Multiple-UEs-0-20260712-14:08:30-21962
attr configname Multiple-UEs
attr datetime 20260712-14:08:30
attr datetimef 20260712-140830
attr experiment Multiple-UEs
attr inifile omnetpp.ini
attr iterationvars $numUes=1
attr iterationvarsd numUes=1
attr iterationvarsf numUes=1-
attr measurement $numUes=1
attr network simu5g.simulations.nr.networks.SingleCell_Standalone
attr processid 21962
attr repetition 0
attr replication #0
attr resultdir results
attr runnumber 0
attr seedset 0
itervar numUes 1
config **.param-recording false
config image-path /home/andras/projects/Simu5G-fork/simu5g-fork/images
config output-scalar-file results/omnetpp.ini-Multiple-UEs-#0.sca
config output-scalar-precision 17
config output-vector-file results/omnetpp.ini-Multiple-UEs-#0.vec
config output-vector-precision 17
config record-eventlog false
config sim-time-limit 10s
config extends BgTraffic
config *.numUe 1
config *.ue[*].mobility.initialX uniform(0m,1000m)
config *.ue[*].mobility.initialY uniform(0m,1000m)
config *.server.numApps 1
config output-scalar-file results/Multiple-UEs/$numUes=1-0.sca
config output-vector-file results/Multiple-UEs/$numUes=1-0.vec
config extends Single-UE
config *.numBgCells 1
config *.bgCell[*].bgScheduler.isNr true
config *.bgCell[*].bgScheduler.txPower 23dBm
config *.bgCell[*].mobility.initialX 750m
config *.bgCell[*].mobility.initialY 1000m
config *.bgCell[*].bgTrafficGenerator.numBgUes 10
config *.bgCell[*].bgTrafficGenerator.bgUE[*].mobility.initialX uniform(500m,1000m)
config *.bgCell[*].bgTrafficGenerator.bgUE[*].mobility.initialY uniform(500m,1000m)
config *.bgCell[*].bgTrafficGenerator.bgUE[*].generator.typename TrafficGeneratorCbr
config *.bgCell[*].bgTrafficGenerator.bgUE[*].generator.startTimeDl uniform(0s,0.05s)
config *.bgCell[*].bgTrafficGenerator.bgUE[*].generator.packetSizeDl 1000B
config *.bgCell[*].bgTrafficGenerator.bgUE[*].generator.periodDl 0.01s
config *.gnb.mobility.initialX 500m
config *.gnb.mobility.initialY 500m
config *.numUe 1
config *.ue[*].mobility.initialX 500m
config *.ue[*].mobility.initialY 900m
config *.ue[*].servingNodeId 0
config *.ue[*].nrServingNodeId 1
config *.ue[*].numApps 1
config *.server.numApps 1
config *.ue[*].app[*].typename CbrReceiver
config *.ue[*].app[*].localPort 1000
config *.server.app[*].typename CbrSender
config *.server.app[*].PacketSize 1000
config *.server.app[*].samplingTime 0.01s
config *.server.app[*].destAddress "\"ue[\"+string(ancestorIndex(0))+\"]\""
config *.server.app[*].destPort 1000
config *.server.app[*].localPort 3088+ancestorIndex(0)
config *.server.app[*].startTime uniform(0.01s,0.05s)
config network simu5g.simulations.nr.networks.SingleCell_Standalone
config sim-time-limit 10s
config warmup-period 1s
config seed-set 0
config output-scalar-file results/Multiple-UEs/0.sca
config output-vector-file results/Multiple-UEs/0.vec
config **.routingRecorder.enabled false
config **.amcType "\"NrAmc\""
config **.targetBler 0.01
config **.blerShift 5
config *.configurator.config "xmldoc(\"./demo.xml\")"
config **.mobility.constraintAreaMaxX 1000m
config **.mobility.constraintAreaMaxY 1000m
config **.mobility.constraintAreaMinX 0m
config **.mobility.constraintAreaMinY 0m
config **.mobility.constraintAreaMinZ 0m
config **.mobility.constraintAreaMaxZ 0m
config **.mobility.initFromDisplayString false

scalar SingleCell_Standalone.server.lo[0].lo rcvdPkFromHl:count 0
scalar SingleCell_Standalone.server.lo[0].lo rcvdPkFromHl:sum(packetBytes) 0
scalar SingleCell_Standalone.server.lo[0].lo passedUpPk:count 0
scalar SingleCell_Standalone.server.lo[0].lo passedUpPk:sum(packetBytes) 0
scalar SingleCell_Standalone.server.lo[0] packetDropInterfaceDown:count 0
scalar SingleCell_Standalone.server.lo[0] packetDropInterfaceDown:sum(packetBytes) 0
scalar SingleCell_Standalone.server.lo[0] packetDropNoCarrier:count 0
scalar SingleCell_Standalone.server.lo[0] packetDropNoCarrier:sum(packetBytes) 0
scalar SingleCell_Standalone.server.ppp[0].queue queueLength:last 0
scalar SingleCell_Standalone.server.ppp[0].queue queueLength:max 0
scalar SingleCell_Standalone.server.ppp[0].queue queueLength:timeavg 0
scalar SingleCell_Standalone.server.ppp[0].queue queueBitLength:last 0
scalar SingleCell_Standalone.server.ppp[0].queue queueBitLength:max 0
scalar SingleCell_Standalone.server.ppp[0].queue queueBitLength:timeavg 0
scalar SingleCell_Standalone.server.ppp[0].queue outgoingPackets:count 900
scalar SingleCell_Standalone.server.ppp[0].queue outgoingPacketLengths:sum 489600
scalar SingleCell_Standalone.server.ppp[0].queue incomingPackets:count 900
scalar SingleCell_Standalone.server.ppp[0].queue incomingPacketLengths:sum 489600
scalar SingleCell_Standalone.server.ppp[0].queue droppedPacketsQueueOverflow:count 0
scalar SingleCell_Standalone.server.ppp[0].queue droppedPacketLengthsQueueOverflow:sum 0
scalar SingleCell_Standalone.server.ppp[0].ppp transmissionState:timeavg 6.0016409413054583e-06
scalar SingleCell_Standalone.server.ppp[0].ppp rxPkOk:count 0
scalar SingleCell_Standalone.server.ppp[0].ppp rxPkOk:sum(packetBytes) 0
scalar SingleCell_Standalone.server.ppp[0].ppp txPk:count 900
scalar SingleCell_Standalone.server.ppp[0].ppp txPk:sum(packetBytes) 67500
scalar SingleCell_Standalone.server.ppp[0].ppp rcvdPkFromHl:count 900
scalar SingleCell_Standalone.server.ppp[0].ppp rcvdPkFromHl:sum(packetBytes) 61200
scalar SingleCell_Standalone.server.ppp[0].ppp passedUpPk:count 0
scalar SingleCell_Standalone.server.ppp[0].ppp passedUpPk:sum(packetBytes) 0
scalar SingleCell_Standalone.server.ppp[0].ppp packetDropIncorrectlyReceived:count 0
scalar SingleCell_Standalone.server.ppp[0].ppp packetDropIncorrectlyReceived:sum(packetBytes) 0
scalar SingleCell_Standalone.server.ppp[0].ppp packetDropInterfaceDown:count 0
scalar SingleCell_Standalone.server.ppp[0].ppp packetDropInterfaceDown:sum(packetBytes) 0
scalar SingleCell_Standalone.server.ppp[0] packetDropInterfaceDown:count 0
scalar SingleCell_Standalone.server.ppp[0] packetDropInterfaceDown:sum(packetBytes) 0
scalar SingleCell_Standalone.server.ppp[0] packetDropNoCarrier:count 0
scalar SingleCell_Standalone.server.ppp[0] packetDropNoCarrier:sum(packetBytes) 0
scalar SingleCell_Standalone.server.ipv4.ip packetDropAddressResolutionFailed:count 0
scalar SingleCell_Standalone.server.ipv4.ip packetDropAddressResolutionFailed:sum(packetBytes) 0
scalar SingleCell_Standalone.server.ipv4.ip packetDropHopLimitReached:count 0
scalar SingleCell_Standalone.server.ipv4.ip packetDropHopLimitReached:sum(packetBytes) 0
scalar SingleCell_Standalone.server.ipv4.ip packetDropForwardingDisabled:count 0
scalar SingleCell_Standalone.server.ipv4.ip packetDropForwardingDisabled:sum(packetBytes) 0
scalar SingleCell_Standalone.server.ipv4.ip packetDropNoInterfaceFound:count 0
scalar SingleCell_Standalone.server.ipv4.ip packetDropNoInterfaceFound:sum(packetBytes) 0
scalar SingleCell_Standalone.server.ipv4.ip packetDropNoRouteFound:count 0
scalar SingleCell_Standalone.server.ipv4.ip packetDropNoRouteFound:sum(packetBytes) 0
scalar SingleCell_Standalone.server.ipv4.ip packetDropUndefined:count 0
scalar SingleCell_Standalone.server.ipv4.ip packetDropUndefined:sum(packetBytes) 0
scalar SingleCell_Standalone.server.ipv4.arp arpResolutionFailed:count 0
scalar SingleCell_Standalone.server.ipv4.arp arpResolutionCompleted:count 0
scalar SingleCell_Standalone.server.ipv4.arp arpResolutionInitiated:count 0
scalar SingleCell_Standalone.server.ipv4.arp arpReplySent:count 0
scalar SingleCell_Standalone.server.ipv4.arp arpReplySent:sum(packetBytes) 0
scalar SingleCell_Standalone.server.ipv4.arp arpRequestSent:count 0
scalar SingleCell_Standalone.server.ipv4.arp arpRequestSent:sum(packetBytes) 0
scalar SingleCell_Standalone.server.udp packetReceived:count 0
scalar SingleCell_Standalone.server.udp packetReceived:sum(packetBytes) 0
scalar SingleCell_Standalone.server.udp packetSent:count 900
scalar SingleCell_Standalone.server.udp packetSent:sum(packetBytes) 43200
scalar SingleCell_Standalone.server.udp passedUpPk:count 0
scalar SingleCell_Standalone.server.udp droppedPkWrongPort:count 0
scalar SingleCell_Standalone.server.udp droppedPkBadChecksum:count 0
scalar SingleCell_Standalone.server.app[0] cbrGeneratedBytes:mean 40
scalar SingleCell_Standalone.server.app[0] cbrGeneratedBytes:last(sumPerDuration) 4003.3535919694723
scalar SingleCell_Standalone.server.app[0] cbrGeneratedThroughput:simu5g_rateavg 4000
scalar SingleCell_Standalone.router.lo[0].lo rcvdPkFromHl:count 0
scalar SingleCell_Standalone.router.lo[0].lo rcvdPkFromHl:sum(packetBytes) 0
scalar SingleCell_Standalone.router.lo[0].lo passedUpPk:count 0
scalar SingleCell_Standalone.router.lo[0].lo passedUpPk:sum(packetBytes) 0
scalar SingleCell_Standalone.router.lo[0] packetDropInterfaceDown:count 0
scalar SingleCell_Standalone.router.lo[0] packetDropInterfaceDown:sum(packetBytes) 0
scalar SingleCell_Standalone.router.lo[0] packetDropNoCarrier:count 0
scalar SingleCell_Standalone.router.lo[0] packetDropNoCarrier:sum(packetBytes) 0
scalar SingleCell_Standalone.router.ppp[0].queue queueLength:last 0
scalar SingleCell_Standalone.router.ppp[0].queue queueLength:max 0
scalar SingleCell_Standalone.router.ppp[0].queue queueLength:timeavg 0
scalar SingleCell_Standalone.router.ppp[0].queue queueBitLength:last 0
scalar SingleCell_Standalone.router.ppp[0].queue queueBitLength:max 0
scalar SingleCell_Standalone.router.ppp[0].queue queueBitLength:timeavg 0
scalar SingleCell_Standalone.router.ppp[0].queue outgoingPackets:count 0
scalar SingleCell_Standalone.router.ppp[0].queue outgoingPacketLengths:sum 0
scalar SingleCell_Standalone.router.ppp[0].queue incomingPackets:count 0
scalar SingleCell_Standalone.router.ppp[0].queue incomingPacketLengths:sum 0
scalar SingleCell_Standalone.router.ppp[0].queue droppedPacketsQueueOverflow:count 0
scalar SingleCell_Standalone.router.ppp[0].queue droppedPacketLengthsQueueOverflow:sum 0
scalar SingleCell_Standalone.router.ppp[0].ppp transmissionState:timeavg -nan
scalar SingleCell_Standalone.router.ppp[0].ppp rxPkOk:count 900
scalar SingleCell_Standalone.router.ppp[0].ppp rxPkOk:sum(packetBytes) 67500
scalar SingleCell_Standalone.router.ppp[0].ppp txPk:count 0
scalar SingleCell_Standalone.router.ppp[0].ppp txPk:sum(packetBytes) 0
scalar SingleCell_Standalone.router.ppp[0].ppp rcvdPkFromHl:count 0
scalar SingleCell_Standalone.router.ppp[0].ppp rcvdPkFromHl:sum(packetBytes) 0
scalar SingleCell_Standalone.router.ppp[0].ppp passedUpPk:count 900
scalar SingleCell_Standalone.router.ppp[0].ppp passedUpPk:sum(packetBytes) 61200
scalar SingleCell_Standalone.router.ppp[0].ppp packetDropIncorrectlyReceived:count 0
scalar SingleCell_Standalone.router.ppp[0].ppp packetDropIncorrectlyReceived:sum(packetBytes) 0
scalar SingleCell_Standalone.router.ppp[0].ppp packetDropInterfaceDown:count 0
scalar SingleCell_Standalone.router.ppp[0].ppp packetDropInterfaceDown:sum(packetBytes) 0
scalar SingleCell_Standalone.router.ppp[0] packetDropInterfaceDown:count 0
scalar SingleCell_Standalone.router.ppp[0] packetDropInterfaceDown:sum(packetBytes) 0
scalar SingleCell_Standalone.router.ppp[0] packetDropNoCarrier:count 0
scalar SingleCell_Standalone.router.ppp[0] packetDropNoCarrier:sum(packetBytes) 0
scalar SingleCell_Standalone.router.ppp[1].queue queueLength:last 0
scalar SingleCell_Standalone.router.ppp[1].queue queueLength:max 0
scalar SingleCell_Standalone.router.ppp[1].queue queueLength:timeavg 0
scalar SingleCell_Standalone.router.ppp[1].queue queueBitLength:last 0
scalar SingleCell_Standalone.router.ppp[1].queue queueBitLength:max 0
scalar SingleCell_Standalone.router.ppp[1].queue queueBitLength:timeavg 0
scalar SingleCell_Standalone.router.ppp[1].queue outgoingPackets:count 900
scalar SingleCell_Standalone.router.ppp[1].queue outgoingPacketLengths:sum 489600
scalar SingleCell_Standalone.router.ppp[1].queue incomingPackets:count 900
scalar SingleCell_Standalone.router.ppp[1].queue incomingPacketLengths:sum 489600
scalar SingleCell_Standalone.router.ppp[1].queue droppedPacketsQueueOverflow:count 0
scalar SingleCell_Standalone.router.ppp[1].queue droppedPacketLengthsQueueOverflow:sum 0
scalar SingleCell_Standalone.router.ppp[1].ppp transmissionState:timeavg 6.0016410146789089e-06
scalar SingleCell_Standalone.router.ppp[1].ppp rxPkOk:count 0
scalar SingleCell_Standalone.router.ppp[1].ppp rxPkOk:sum(packetBytes) 0
scalar SingleCell_Standalone.router.ppp[1].ppp txPk:count 900
scalar SingleCell_Standalone.router.ppp[1].ppp txPk:sum(packetBytes) 67500
scalar SingleCell_Standalone.router.ppp[1].ppp rcvdPkFromHl:count 900
scalar SingleCell_Standalone.router.ppp[1].ppp rcvdPkFromHl:sum(packetBytes) 61200
scalar SingleCell_Standalone.router.ppp[1].ppp passedUpPk:count 0
scalar SingleCell_Standalone.router.ppp[1].ppp passedUpPk:sum(packetBytes) 0
scalar SingleCell_Standalone.router.ppp[1].ppp packetDropIncorrectlyReceived:count 0
scalar SingleCell_Standalone.router.ppp[1].ppp packetDropIncorrectlyReceived:sum(packetBytes) 0
scalar SingleCell_Standalone.router.ppp[1].ppp packetDropInterfaceDown:count 0
scalar SingleCell_Standalone.router.ppp[1].ppp packetDropInterfaceDown:sum(packetBytes) 0
scalar SingleCell_Standalone.router.ppp[1] packetDropInterfaceDown:count 0
scalar SingleCell_Standalone.router.ppp[1] packetDropInterfaceDown:sum(packetBytes) 0
scalar SingleCell_Standalone.router.ppp[1] packetDropNoCarrier:count 0
scalar SingleCell_Standalone.router.ppp[1] packetDropNoCarrier:sum(packetBytes) 0
scalar SingleCell_Standalone.router.ipv4.ip packetDropAddressResolutionFailed:count 0
scalar SingleCell_Standalone.router.ipv4.ip packetDropAddressResolutionFailed:sum(packetBytes) 0
scalar SingleCell_Standalone.router.ipv4.ip packetDropHopLimitReached:count 0
scalar SingleCell_Standalone.router.ipv4.ip packetDropHopLimitReached:sum(packetBytes) 0
scalar SingleCell_Standalone.router.ipv4.ip packetDropForwardingDisabled:count 0
scalar SingleCell_Standalone.router.ipv4.ip packetDropForwardingDisabled:sum(packetBytes) 0
scalar SingleCell_Standalone.router.ipv4.ip packetDropNoInterfaceFound:count 0
scalar SingleCell_Standalone.router.ipv4.ip packetDropNoInterfaceFound:sum(packetBytes) 0
scalar SingleCell_Standalone.router.ipv4.ip packetDropNoRouteFound:count 0
scalar SingleCell_Standalone.router.ipv4.ip packetDropNoRouteFound:sum(packetBytes) 0
scalar SingleCell_Standalone.router.ipv4.ip packetDropUndefined:count 0
scalar SingleCell_Standalone.router.ipv4.ip packetDropUndefined:sum(packetBytes) 0
scalar SingleCell_Standalone.router.ipv4.arp arpResolutionFailed:count 0
scalar SingleCell_Standalone.router.ipv4.arp arpResolutionCompleted:count 0
scalar SingleCell_Standalone.router.ipv4.arp arpResolutionInitiated:count 0
scalar SingleCell_Standalone.router.ipv4.arp arpReplySent:count 0
scalar SingleCell_Standalone.router.ipv4.arp arpReplySent:sum(packetBytes) 0
scalar SingleCell_Standalone.router.ipv4.arp arpRequestSent:count 0
scalar SingleCell_Standalone.router.ipv4.arp arpRequestSent:sum(packetBytes) 0
scalar SingleCell_Standalone.upf.lo[0].lo rcvdPkFromHl:count 0
scalar SingleCell_Standalone.upf.lo[0].lo rcvdPkFromHl:sum(packetBytes) 0
scalar SingleCell_Standalone.upf.lo[0].lo passedUpPk:count 0
scalar SingleCell_Standalone.upf.lo[0].lo passedUpPk:sum(packetBytes) 0
scalar SingleCell_Standalone.upf.lo[0] packetDropInterfaceDown:count 0
scalar SingleCell_Standalone.upf.lo[0] packetDropInterfaceDown:sum(packetBytes) 0
scalar SingleCell_Standalone.upf.lo[0] packetDropNoCarrier:count 0
scalar SingleCell_Standalone.upf.lo[0] packetDropNoCarrier:sum(packetBytes) 0
scalar SingleCell_Standalone.upf.ppp[0].queue queueLength:last 0
scalar SingleCell_Standalone.upf.ppp[0].queue queueLength:max 0
scalar SingleCell_Standalone.upf.ppp[0].queue queueLength:timeavg 0
scalar SingleCell_Standalone.upf.ppp[0].queue queueBitLength:last 0
scalar SingleCell_Standalone.upf.ppp[0].queue queueBitLength:max 0
scalar SingleCell_Standalone.upf.ppp[0].queue queueBitLength:timeavg 0
scalar SingleCell_Standalone.upf.ppp[0].queue outgoingPackets:count 900
scalar SingleCell_Standalone.upf.ppp[0].queue outgoingPacketLengths:sum 748800
scalar SingleCell_Standalone.upf.ppp[0].queue incomingPackets:count 900
scalar SingleCell_Standalone.upf.ppp[0].queue incomingPacketLengths:sum 748800
scalar SingleCell_Standalone.upf.ppp[0].queue droppedPacketsQueueOverflow:count 0
scalar SingleCell_Standalone.upf.ppp[0].queue droppedPacketLengthsQueueOverflow:sum 0
scalar SingleCell_Standalone.upf.ppp[0].ppp transmissionState:timeavg 8.8824288103174264e-06
scalar SingleCell_Standalone.upf.ppp[0].ppp rxPkOk:count 0
scalar SingleCell_Standalone.upf.ppp[0].ppp rxPkOk:sum(packetBytes) 0
scalar SingleCell_Standalone.upf.ppp[0].ppp txPk:count 900
scalar SingleCell_Standalone.upf.ppp[0].ppp txPk:sum(packetBytes) 99900
scalar SingleCell_Standalone.upf.ppp[0].ppp rcvdPkFromHl:count 900
scalar SingleCell_Standalone.upf.ppp[0].ppp rcvdPkFromHl:sum(packetBytes) 93600
scalar SingleCell_Standalone.upf.ppp[0].ppp passedUpPk:count 0
scalar SingleCell_Standalone.upf.ppp[0].ppp passedUpPk:sum(packetBytes) 0
scalar SingleCell_Standalone.upf.ppp[0].ppp packetDropIncorrectlyReceived:count 0
scalar SingleCell_Standalone.upf.ppp[0].ppp packetDropIncorrectlyReceived:sum(packetBytes) 0
scalar SingleCell_Standalone.upf.ppp[0].ppp packetDropInterfaceDown:count 0
scalar SingleCell_Standalone.upf.ppp[0].ppp packetDropInterfaceDown:sum(packetBytes) 0
scalar SingleCell_Standalone.upf.ppp[0] packetDropInterfaceDown:count 0
scalar SingleCell_Standalone.upf.ppp[0] packetDropInterfaceDown:sum(packetBytes) 0
scalar SingleCell_Standalone.upf.ppp[0] packetDropNoCarrier:count 0
scalar SingleCell_Standalone.upf.ppp[0] packetDropNoCarrier:sum(packetBytes) 0
scalar SingleCell_Standalone.upf.ipv4.ip packetDropAddressResolutionFailed:count 0
scalar SingleCell_Standalone.upf.ipv4.ip packetDropAddressResolutionFailed:sum(packetBytes) 0
scalar SingleCell_Standalone.upf.ipv4.ip packetDropHopLimitReached:count 0
scalar SingleCell_Standalone.upf.ipv4.ip packetDropHopLimitReached:sum(packetBytes) 0
scalar SingleCell_Standalone.upf.ipv4.ip packetDropForwardingDisabled:count 0
scalar SingleCell_Standalone.upf.ipv4.ip packetDropForwardingDisabled:sum(packetBytes) 0
scalar SingleCell_Standalone.upf.ipv4.ip packetDropNoInterfaceFound:count 0
scalar SingleCell_Standalone.upf.ipv4.ip packetDropNoInterfaceFound:sum(packetBytes) 0
scalar SingleCell_Standalone.upf.ipv4.ip packetDropNoRouteFound:count 0
scalar SingleCell_Standalone.upf.ipv4.ip packetDropNoRouteFound:sum(packetBytes) 0
scalar SingleCell_Standalone.upf.ipv4.ip packetDropUndefined:count 0
scalar SingleCell_Standalone.upf.ipv4.ip packetDropUndefined:sum(packetBytes) 0
scalar SingleCell_Standalone.upf.ipv4.arp arpResolutionFailed:count 0
scalar SingleCell_Standalone.upf.ipv4.arp arpResolutionCompleted:count 0
scalar SingleCell_Standalone.upf.ipv4.arp arpResolutionInitiated:count 0
scalar SingleCell_Standalone.upf.ipv4.arp arpReplySent:count 0
scalar SingleCell_Standalone.upf.ipv4.arp arpReplySent:sum(packetBytes) 0
scalar SingleCell_Standalone.upf.ipv4.arp arpRequestSent:count 0
scalar SingleCell_Standalone.upf.ipv4.arp arpRequestSent:sum(packetBytes) 0
scalar SingleCell_Standalone.upf.pppIf.queue queueLength:last 0
scalar SingleCell_Standalone.upf.pppIf.queue queueLength:max 0
scalar SingleCell_Standalone.upf.pppIf.queue queueLength:timeavg 0
scalar SingleCell_Standalone.upf.pppIf.queue queueBitLength:last 0
scalar SingleCell_Standalone.upf.pppIf.queue queueBitLength:max 0
scalar SingleCell_Standalone.upf.pppIf.queue queueBitLength:timeavg 0
scalar SingleCell_Standalone.upf.pppIf.queue outgoingPackets:count 0
scalar SingleCell_Standalone.upf.pppIf.queue outgoingPacketLengths:sum 0
scalar SingleCell_Standalone.upf.pppIf.queue incomingPackets:count 0
scalar SingleCell_Standalone.upf.pppIf.queue incomingPacketLengths:sum 0
scalar SingleCell_Standalone.upf.pppIf.queue droppedPacketsQueueOverflow:count 0
scalar SingleCell_Standalone.upf.pppIf.queue droppedPacketLengthsQueueOverflow:sum 0
scalar SingleCell_Standalone.upf.pppIf.ppp transmissionState:timeavg -nan
scalar SingleCell_Standalone.upf.pppIf.ppp rxPkOk:count 900
scalar SingleCell_Standalone.upf.pppIf.ppp rxPkOk:sum(packetBytes) 67500
scalar SingleCell_Standalone.upf.pppIf.ppp txPk:count 0
scalar SingleCell_Standalone.upf.pppIf.ppp txPk:sum(packetBytes) 0
scalar SingleCell_Standalone.upf.pppIf.ppp rcvdPkFromHl:count 0
scalar SingleCell_Standalone.upf.pppIf.ppp rcvdPkFromHl:sum(packetBytes) 0
scalar SingleCell_Standalone.upf.pppIf.ppp passedUpPk:count 900
scalar SingleCell_Standalone.upf.pppIf.ppp passedUpPk:sum(packetBytes) 61200
scalar SingleCell_Standalone.upf.pppIf.ppp packetDropIncorrectlyReceived:count 0
scalar SingleCell_Standalone.upf.pppIf.ppp packetDropIncorrectlyReceived:sum(packetBytes) 0
scalar SingleCell_Standalone.upf.pppIf.ppp packetDropInterfaceDown:count 0
scalar SingleCell_Standalone.upf.pppIf.ppp packetDropInterfaceDown:sum(packetBytes) 0
scalar SingleCell_Standalone.upf.pppIf packetDropInterfaceDown:count 0
scalar SingleCell_Standalone.upf.pppIf packetDropInterfaceDown:sum(packetBytes) 0
scalar SingleCell_Standalone.upf.pppIf packetDropNoCarrier:count 0
scalar SingleCell_Standalone.upf.pppIf packetDropNoCarrier:sum(packetBytes) 0
scalar SingleCell_Standalone.upf.udp packetReceived:count 0
scalar SingleCell_Standalone.upf.udp packetReceived:sum(packetBytes) 0
scalar SingleCell_Standalone.upf.udp packetSent:count 900
scalar SingleCell_Standalone.upf.udp packetSent:sum(packetBytes) 75600
scalar SingleCell_Standalone.upf.udp passedUpPk:count 0
scalar SingleCell_Standalone.upf.udp droppedPkWrongPort:count 0
scalar SingleCell_Standalone.upf.udp droppedPkBadChecksum:count 0
scalar SingleCell_Standalone.iUpf.lo[0].lo rcvdPkFromHl:count 0
scalar SingleCell_Standalone.iUpf.lo[0].lo rcvdPkFromHl:sum(packetBytes) 0
scalar SingleCell_Standalone.iUpf.lo[0].lo passedUpPk:count 0
scalar SingleCell_Standalone.iUpf.lo[0].lo passedUpPk:sum(packetBytes) 0
scalar SingleCell_Standalone.iUpf.lo[0] packetDropInterfaceDown:count 0
scalar SingleCell_Standalone.iUpf.lo[0] packetDropInterfaceDown:sum(packetBytes) 0
scalar SingleCell_Standalone.iUpf.lo[0] packetDropNoCarrier:count 0
scalar SingleCell_Standalone.iUpf.lo[0] packetDropNoCarrier:sum(packetBytes) 0
scalar SingleCell_Standalone.iUpf.ppp[0].queue queueLength:last 0
scalar SingleCell_Standalone.iUpf.ppp[0].queue queueLength:max 0
scalar SingleCell_Standalone.iUpf.ppp[0].queue queueLength:timeavg 0
scalar SingleCell_Standalone.iUpf.ppp[0].queue queueBitLength:last 0
scalar SingleCell_Standalone.iUpf.ppp[0].queue queueBitLength:max 0
scalar SingleCell_Standalone.iUpf.ppp[0].queue queueBitLength:timeavg 0
scalar SingleCell_Standalone.iUpf.ppp[0].queue outgoingPackets:count 0
scalar SingleCell_Standalone.iUpf.ppp[0].queue outgoingPacketLengths:sum 0
scalar SingleCell_Standalone.iUpf.ppp[0].queue incomingPackets:count 0
scalar SingleCell_Standalone.iUpf.ppp[0].queue incomingPacketLengths:sum 0
scalar SingleCell_Standalone.iUpf.ppp[0].queue droppedPacketsQueueOverflow:count 0
scalar SingleCell_Standalone.iUpf.ppp[0].queue droppedPacketLengthsQueueOverflow:sum 0
scalar SingleCell_Standalone.iUpf.ppp[0].ppp transmissionState:timeavg -nan
scalar SingleCell_Standalone.iUpf.ppp[0].ppp rxPkOk:count 900
scalar SingleCell_Standalone.iUpf.ppp[0].ppp rxPkOk:sum(packetBytes) 99900
scalar SingleCell_Standalone.iUpf.ppp[0].ppp txPk:count 0
scalar SingleCell_Standalone.iUpf.ppp[0].ppp txPk:sum(packetBytes) 0
scalar SingleCell_Standalone.iUpf.ppp[0].ppp rcvdPkFromHl:count 0
scalar SingleCell_Standalone.iUpf.ppp[0].ppp rcvdPkFromHl:sum(packetBytes) 0
scalar SingleCell_Standalone.iUpf.ppp[0].ppp passedUpPk:count 900
scalar SingleCell_Standalone.iUpf.ppp[0].ppp passedUpPk:sum(packetBytes) 93600
scalar SingleCell_Standalone.iUpf.ppp[0].ppp packetDropIncorrectlyReceived:count 0
scalar SingleCell_Standalone.iUpf.ppp[0].ppp packetDropIncorrectlyReceived:sum(packetBytes) 0
scalar SingleCell_Standalone.iUpf.ppp[0].ppp packetDropInterfaceDown:count 0
scalar SingleCell_Standalone.iUpf.ppp[0].ppp packetDropInterfaceDown:sum(packetBytes) 0
scalar SingleCell_Standalone.iUpf.ppp[0] packetDropInterfaceDown:count 0
scalar SingleCell_Standalone.iUpf.ppp[0] packetDropInterfaceDown:sum(packetBytes) 0
scalar SingleCell_Standalone.iUpf.ppp[0] packetDropNoCarrier:count 0
scalar SingleCell_Standalone.iUpf.ppp[0] packetDropNoCarrier:sum(packetBytes) 0
scalar SingleCell_Standalone.iUpf.ppp[1].queue queueLength:last 0
scalar SingleCell_Standalone.iUpf.ppp[1].queue queueLength:max 0
scalar SingleCell_Standalone.iUpf.ppp[1].queue queueLength:timeavg 0
scalar SingleCell_Standalone.iUpf.ppp[1].queue queueBitLength:last 0
scalar SingleCell_Standalone.iUpf.ppp[1].queue queueBitLength:max 0
scalar SingleCell_Standalone.iUpf.ppp[1].queue queueBitLength:timeavg 0
scalar SingleCell_Standalone.iUpf.ppp[1].queue outgoingPackets:count 900
scalar SingleCell_Standalone.iUpf.ppp[1].queue outgoingPacketLengths:sum 748800
scalar SingleCell_Standalone.iUpf.ppp[1].queue incomingPackets:count 900
scalar SingleCell_Standalone.iUpf.ppp[1].queue incomingPacketLengths:sum 748800
scalar SingleCell_Standalone.iUpf.ppp[1].queue droppedPacketsQueueOverflow:count 0
scalar SingleCell_Standalone.iUpf.ppp[1].queue droppedPacketLengthsQueueOverflow:sum 0
scalar SingleCell_Standalone.iUpf.ppp[1].ppp transmissionState:timeavg 8.8824289473416871e-06
scalar SingleCell_Standalone.iUpf.ppp[1].ppp rxPkOk:count 0
scalar SingleCell_Standalone.iUpf.ppp[1].ppp rxPkOk:sum(packetBytes) 0
scalar SingleCell_Standalone.iUpf.ppp[1].ppp txPk:count 900
scalar SingleCell_Standalone.iUpf.ppp[1].ppp txPk:sum(packetBytes) 99900
scalar SingleCell_Standalone.iUpf.ppp[1].ppp rcvdPkFromHl:count 900
scalar SingleCell_Standalone.iUpf.ppp[1].ppp rcvdPkFromHl:sum(packetBytes) 93600
scalar SingleCell_Standalone.iUpf.ppp[1].ppp passedUpPk:count 0
scalar SingleCell_Standalone.iUpf.ppp[1].ppp passedUpPk:sum(packetBytes) 0
scalar SingleCell_Standalone.iUpf.ppp[1].ppp packetDropIncorrectlyReceived:count 0
scalar SingleCell_Standalone.iUpf.ppp[1].ppp packetDropIncorrectlyReceived:sum(packetBytes) 0
scalar SingleCell_Standalone.iUpf.ppp[1].ppp packetDropInterfaceDown:count 0
scalar SingleCell_Standalone.iUpf.ppp[1].ppp packetDropInterfaceDown:sum(packetBytes) 0
scalar SingleCell_Standalone.iUpf.ppp[1] packetDropInterfaceDown:count 0
scalar SingleCell_Standalone.iUpf.ppp[1] packetDropInterfaceDown:sum(packetBytes) 0
scalar SingleCell_Standalone.iUpf.ppp[1] packetDropNoCarrier:count 0
scalar SingleCell_Standalone.iUpf.ppp[1] packetDropNoCarrier:sum(packetBytes) 0
scalar SingleCell_Standalone.iUpf.ipv4.ip packetDropAddressResolutionFailed:count 0
scalar SingleCell_Standalone.iUpf.ipv4.ip packetDropAddressResolutionFailed:sum(packetBytes) 0
scalar SingleCell_Standalone.iUpf.ipv4.ip packetDropHopLimitReached:count 0
scalar SingleCell_Standalone.iUpf.ipv4.ip packetDropHopLimitReached:sum(packetBytes) 0
scalar SingleCell_Standalone.iUpf.ipv4.ip packetDropForwardingDisabled:count 0
scalar SingleCell_Standalone.iUpf.ipv4.ip packetDropForwardingDisabled:sum(packetBytes) 0
scalar SingleCell_Standalone.iUpf.ipv4.ip packetDropNoInterfaceFound:count 0
scalar SingleCell_Standalone.iUpf.ipv4.ip packetDropNoInterfaceFound:sum(packetBytes) 0
scalar SingleCell_Standalone.iUpf.ipv4.ip packetDropNoRouteFound:count 0
scalar SingleCell_Standalone.iUpf.ipv4.ip packetDropNoRouteFound:sum(packetBytes) 0
scalar SingleCell_Standalone.iUpf.ipv4.ip packetDropUndefined:count 0
scalar SingleCell_Standalone.iUpf.ipv4.ip packetDropUndefined:sum(packetBytes) 0
scalar SingleCell_Standalone.iUpf.ipv4.arp arpResolutionFailed:count 0
scalar SingleCell_Standalone.iUpf.ipv4.arp arpResolutionCompleted:count 0
scalar SingleCell_Standalone.iUpf.ipv4.arp arpResolutionInitiated:count 0
scalar SingleCell_Standalone.iUpf.ipv4.arp arpReplySent:count 0
scalar SingleCell_Standalone.iUpf.ipv4.arp arpReplySent:sum(packetBytes) 0
scalar SingleCell_Standalone.iUpf.ipv4.arp arpRequestSent:count 0
scalar SingleCell_Standalone.iUpf.ipv4.arp arpRequestSent:sum(packetBytes) 0
scalar SingleCell_Standalone.iUpf.pppIf.queue queueLength:last 0
scalar SingleCell_Standalone.iUpf.pppIf.queue queueLength:max 0
scalar SingleCell_Standalone.iUpf.pppIf.queue queueLength:timeavg 0
scalar SingleCell_Standalone.iUpf.pppIf.queue queueBitLength:last 0
scalar SingleCell_Standalone.iUpf.pppIf.queue queueBitLength:max 0
scalar SingleCell_Standalone.iUpf.pppIf.queue queueBitLength:timeavg 0
scalar SingleCell_Standalone.iUpf.pppIf.queue outgoingPackets:count 0
scalar SingleCell_Standalone.iUpf.pppIf.queue outgoingPacketLengths:sum 0
scalar SingleCell_Standalone.iUpf.pppIf.queue incomingPackets:count 0
scalar SingleCell_Standalone.iUpf.pppIf.queue incomingPacketLengths:sum 0
scalar SingleCell_Standalone.iUpf.pppIf.queue droppedPacketsQueueOverflow:count 0
scalar SingleCell_Standalone.iUpf.pppIf.queue droppedPacketLengthsQueueOverflow:sum 0
scalar SingleCell_Standalone.iUpf.pppIf.ppp transmissionState:timeavg -nan
scalar SingleCell_Standalone.iUpf.pppIf.ppp rxPkOk:count 0
scalar SingleCell_Standalone.iUpf.pppIf.ppp rxPkOk:sum(packetBytes) 0
scalar SingleCell_Standalone.iUpf.pppIf.ppp txPk:count 0
scalar SingleCell_Standalone.iUpf.pppIf.ppp txPk:sum(packetBytes) 0
scalar SingleCell_Standalone.iUpf.pppIf.ppp rcvdPkFromHl:count 0
scalar SingleCell_Standalone.iUpf.pppIf.ppp rcvdPkFromHl:sum(packetBytes) 0
scalar SingleCell_Standalone.iUpf.pppIf.ppp passedUpPk:count 0
scalar SingleCell_Standalone.iUpf.pppIf.ppp passedUpPk:sum(packetBytes) 0
scalar SingleCell_Standalone.iUpf.pppIf.ppp packetDropIncorrectlyReceived:count 0
scalar SingleCell_Standalone.iUpf.pppIf.ppp packetDropIncorrectlyReceived:sum(packetBytes) 0
scalar SingleCell_Standalone.iUpf.pppIf.ppp packetDropInterfaceDown:count 0
scalar SingleCell_Standalone.iUpf.pppIf.ppp packetDropInterfaceDown:sum(packetBytes) 0
scalar SingleCell_Standalone.iUpf.pppIf packetDropInterfaceDown:count 0
scalar SingleCell_Standalone.iUpf.pppIf packetDropInterfaceDown:sum(packetBytes) 0
scalar SingleCell_Standalone.iUpf.pppIf packetDropNoCarrier:count 0
scalar SingleCell_Standalone.iUpf.pppIf packetDropNoCarrier:sum(packetBytes) 0
scalar SingleCell_Standalone.iUpf.udp packetReceived:count 0
scalar SingleCell_Standalone.iUpf.udp packetReceived:sum(packetBytes) 0
scalar SingleCell_Standalone.iUpf.udp packetSent:count 0
scalar SingleCell_Standalone.iUpf.udp packetSent:sum(packetBytes) 0
scalar SingleCell_Standalone.iUpf.udp passedUpPk:count 0
scalar SingleCell_Standalone.iUpf.udp droppedPkWrongPort:count 0
scalar SingleCell_Standalone.iUpf.udp droppedPkBadChecksum:count 0
scalar SingleCell_Standalone.gnb.cellularNic.pdcp sentPacketToLowerLayer:count 900
scalar SingleCell_Standalone.gnb.cellularNic.pdcp sentPacketToLowerLayer:sum(packetBytes) 62100
scalar SingleCell_Standalone.gnb.cellularNic.pdcp sentPacketToUpperLayer:count 0
scalar SingleCell_Standalone.gnb.cellularNic.pdcp sentPacketToUpperLayer:sum(packetBytes) 0
scalar SingleCell_Standalone.gnb.cellularNic.pdcp receivedPacketFromLowerLayer:count 0
scalar SingleCell_Standalone.gnb.cellularNic.pdcp receivedPacketFromLowerLayer:sum(packetBytes) 0
scalar SingleCell_Standalone.gnb.cellularNic.pdcp receivedPacketFromUpperLayer:count 900
scalar SingleCell_Standalone.gnb.cellularNic.pdcp receivedPacketFromUpperLayer:sum(packetBytes) 61200
scalar SingleCell_Standalone.gnb.cellularNic.rlc.tm rlcPacketLossUl:mean -nan
scalar SingleCell_Standalone.gnb.cellularNic.rlc.tm rlcPacketLossUl:sum 0
scalar SingleCell_Standalone.gnb.cellularNic.rlc.tm rlcPacketLossDl:mean -nan
scalar SingleCell_Standalone.gnb.cellularNic.rlc.tm rlcPacketLossDl:sum 0
scalar SingleCell_Standalone.gnb.cellularNic.rlc.tm sentPacketToLowerLayer:count 0
scalar SingleCell_Standalone.gnb.cellularNic.rlc.tm sentPacketToLowerLayer:sum(packetBytes) 0
scalar SingleCell_Standalone.gnb.cellularNic.rlc.tm sentPacketToUpperLayer:count 0
scalar SingleCell_Standalone.gnb.cellularNic.rlc.tm sentPacketToUpperLayer:sum(packetBytes) 0
scalar SingleCell_Standalone.gnb.cellularNic.rlc.tm receivedPacketFromLowerLayer:count 0
scalar SingleCell_Standalone.gnb.cellularNic.rlc.tm receivedPacketFromLowerLayer:sum(packetBytes) 0
scalar SingleCell_Standalone.gnb.cellularNic.rlc.tm receivedPacketFromUpperLayer:count 0
scalar SingleCell_Standalone.gnb.cellularNic.rlc.tm receivedPacketFromUpperLayer:sum(packetBytes) 0
scalar SingleCell_Standalone.gnb.cellularNic.rlc.um rlcCellThroughputD2D:simu5g_rateavg -nan
scalar SingleCell_Standalone.gnb.cellularNic.rlc.um rlcPduThroughputD2D:simu5g_rateavg -nan
scalar SingleCell_Standalone.gnb.cellularNic.rlc.um rlcPduDelayD2D:mean -nan
scalar SingleCell_Standalone.gnb.cellularNic.rlc.um rlcThroughputD2D:simu5g_rateavg -nan
scalar SingleCell_Standalone.gnb.cellularNic.rlc.um rlcDelayD2D:mean -nan
scalar SingleCell_Standalone.gnb.cellularNic.rlc.um rlcCellThroughputUl:simu5g_rateavg -nan
scalar SingleCell_Standalone.gnb.cellularNic.rlc.um rlcCellThroughputDl:simu5g_rateavg 106898.60484925057
scalar SingleCell_Standalone.gnb.cellularNic.rlc.um rlcPduThroughputUl:simu5g_rateavg -nan
scalar SingleCell_Standalone.gnb.cellularNic.rlc.um rlcPduThroughputDl:simu5g_rateavg -nan
scalar SingleCell_Standalone.gnb.cellularNic.rlc.um rlcPduDelayUl:mean -nan
scalar SingleCell_Standalone.gnb.cellularNic.rlc.um rlcPduDelayDl:mean -nan
scalar SingleCell_Standalone.gnb.cellularNic.rlc.um rlcThroughputUl:simu5g_rateavg -nan
scalar SingleCell_Standalone.gnb.cellularNic.rlc.um rlcThroughputDl:simu5g_rateavg -nan
scalar SingleCell_Standalone.gnb.cellularNic.rlc.um rlcDelayUl:mean -nan
scalar SingleCell_Standalone.gnb.cellularNic.rlc.um rlcDelayDl:mean -nan
scalar SingleCell_Standalone.gnb.cellularNic.rlc.um sentPacketToLowerLayer:count 900
scalar SingleCell_Standalone.gnb.cellularNic.rlc.um sentPacketToLowerLayer:sum(packetBytes) 63900
scalar SingleCell_Standalone.gnb.cellularNic.rlc.um sentPacketToUpperLayer:count 0
scalar SingleCell_Standalone.gnb.cellularNic.rlc.um sentPacketToUpperLayer:sum(packetBytes) 0
scalar SingleCell_Standalone.gnb.cellularNic.rlc.um receivedPacketFromLowerLayer:count 0
scalar SingleCell_Standalone.gnb.cellularNic.rlc.um receivedPacketFromLowerLayer:sum(packetBytes) 0
scalar SingleCell_Standalone.gnb.cellularNic.rlc.um receivedPacketFromUpperLayer:count 900
scalar SingleCell_Standalone.gnb.cellularNic.rlc.um receivedPacketFromUpperLayer:sum(packetBytes) 62100
scalar SingleCell_Standalone.gnb.cellularNic.rlc.am rlcPacketLossTotal:mean -nan
scalar SingleCell_Standalone.gnb.cellularNic.rlc.am rlcCellThroughputUl:simu5g_rateavg -nan
scalar SingleCell_Standalone.gnb.cellularNic.rlc.am rlcCellThroughputDl:simu5g_rateavg -nan
scalar SingleCell_Standalone.gnb.cellularNic.rlc.am rlcPduThroughputUl:simu5g_rateavg -nan
scalar SingleCell_Standalone.gnb.cellularNic.rlc.am rlcPduThroughputDl:simu5g_rateavg -nan
scalar SingleCell_Standalone.gnb.cellularNic.rlc.am rlcPduDelayUl:mean -nan
scalar SingleCell_Standalone.gnb.cellularNic.rlc.am rlcPduDelayDl:mean -nan
scalar SingleCell_Standalone.gnb.cellularNic.rlc.am rlcThroughputUl:simu5g_rateavg -nan
scalar SingleCell_Standalone.gnb.cellularNic.rlc.am rlcThroughputDl:simu5g_rateavg -nan
scalar SingleCell_Standalone.gnb.cellularNic.rlc.am rlcDelayUl:mean -nan
scalar SingleCell_Standalone.gnb.cellularNic.rlc.am rlcDelayDl:mean -nan
scalar SingleCell_Standalone.gnb.cellularNic.rlc.am rlcPduPacketLossUl:mean -nan
scalar SingleCell_Standalone.gnb.cellularNic.rlc.am rlcPduPacketLossDl:mean -nan
scalar SingleCell_Standalone.gnb.cellularNic.rlc.am rlcPacketLossUl:mean -nan
scalar SingleCell_Standalone.gnb.cellularNic.rlc.am rlcPacketLossDl:mean -nan
scalar SingleCell_Standalone.gnb.cellularNic.rlc.am rlcCellPacketLossUl:mean -nan
scalar SingleCell_Standalone.gnb.cellularNic.rlc.am rlcCellPacketLossDl:mean -nan
scalar SingleCell_Standalone.gnb.cellularNic.mac avgServedBlocksUl:mean 0
scalar SingleCell_Standalone.gnb.cellularNic.mac avgServedBlocksDl:mean 0.10209976669258972
scalar SingleCell_Standalone.gnb.cellularNic.mac macCellPacketLossD2D:mean -nan
scalar SingleCell_Standalone.gnb.cellularNic.mac macCellThroughputD2D:simu5g_rateavg -nan
scalar SingleCell_Standalone.gnb.cellularNic.mac harqTxAttemptsUl:mean -nan
scalar SingleCell_Standalone.gnb.cellularNic.mac harqTxAttemptsDl:mean -nan
scalar SingleCell_Standalone.gnb.cellularNic.mac harqErrorRate_4th_Ul:mean -nan
scalar SingleCell_Standalone.gnb.cellularNic.mac harqErrorRate_4th_Dl:mean -nan
scalar SingleCell_Standalone.gnb.cellularNic.mac harqErrorRate_3rd_Ul:mean -nan
scalar SingleCell_Standalone.gnb.cellularNic.mac harqErrorRate_3rd_Dl:mean -nan
scalar SingleCell_Standalone.gnb.cellularNic.mac harqErrorRate_2nd_Ul:mean -nan
scalar SingleCell_Standalone.gnb.cellularNic.mac harqErrorRate_2nd_Dl:mean -nan
scalar SingleCell_Standalone.gnb.cellularNic.mac harqErrorRate_1st_Ul:mean -nan
scalar SingleCell_Standalone.gnb.cellularNic.mac harqErrorRate_1st_Dl:mean -nan
scalar SingleCell_Standalone.gnb.cellularNic.mac harqErrorRateUl:mean -nan
scalar SingleCell_Standalone.gnb.cellularNic.mac harqErrorRateDl:mean -nan
scalar SingleCell_Standalone.gnb.cellularNic.mac macCellPacketLossUl:mean -nan
scalar SingleCell_Standalone.gnb.cellularNic.mac macCellPacketLossDl:mean 0
scalar SingleCell_Standalone.gnb.cellularNic.mac macPacketLossUl:mean -nan
scalar SingleCell_Standalone.gnb.cellularNic.mac macPacketLossDl:mean -nan
scalar SingleCell_Standalone.gnb.cellularNic.mac macThroughputUl:simu5g_rateavg -nan
scalar SingleCell_Standalone.gnb.cellularNic.mac macThroughputDl:simu5g_rateavg -nan
scalar SingleCell_Standalone.gnb.cellularNic.mac macDelayUl:mean -nan
scalar SingleCell_Standalone.gnb.cellularNic.mac macDelayDl:mean -nan
scalar SingleCell_Standalone.gnb.cellularNic.mac macCellThroughputUl:simu5g_rateavg -nan
scalar SingleCell_Standalone.gnb.cellularNic.mac macCellThroughputDl:simu5g_rateavg 113095.62542022165
scalar SingleCell_Standalone.gnb.cellularNic.mac sentPacketToLowerLayer:count 919
scalar SingleCell_Standalone.gnb.cellularNic.mac sentPacketToLowerLayer:sum(packetBytes) 67087
scalar SingleCell_Standalone.gnb.cellularNic.mac sentPacketToUpperLayer:count 900
scalar SingleCell_Standalone.gnb.cellularNic.mac sentPacketToUpperLayer:sum(packetBytes) 900
scalar SingleCell_Standalone.gnb.cellularNic.mac receivedPacketFromLowerLayer:count 2419
scalar SingleCell_Standalone.gnb.cellularNic.mac receivedPacketFromLowerLayer:sum(packetBytes) 2419
scalar SingleCell_Standalone.gnb.cellularNic.mac receivedPacketFromUpperLayer:count 1800
scalar SingleCell_Standalone.gnb.cellularNic.mac receivedPacketFromUpperLayer:sum(packetBytes) 126000
scalar SingleCell_Standalone.gnb.cellularNic.mac macBufferOverFlowD2D:mean -nan
scalar SingleCell_Standalone.gnb.cellularNic.mac macBufferOverFlowUl:mean -nan
scalar SingleCell_Standalone.gnb.cellularNic.mac macBufferOverFlowDl:mean -nan
scalar SingleCell_Standalone.gnb.cellularNic.channelModel[0] measuredSinrUl:mean -nan
scalar SingleCell_Standalone.gnb.cellularNic.channelModel[0] measuredSinrDl:mean -nan
scalar SingleCell_Standalone.gnb.cellularNic.channelModel[0] rcvdSinrD2D:mean -nan
scalar SingleCell_Standalone.gnb.cellularNic.channelModel[0] rcvdSinrUl:mean -nan
scalar SingleCell_Standalone.gnb.cellularNic.channelModel[0] rcvdSinrDl:mean -nan
scalar SingleCell_Standalone.gnb.cellularNic packetDropInterfaceDown:count 0
scalar SingleCell_Standalone.gnb.cellularNic packetDropInterfaceDown:sum(packetBytes) 0
scalar SingleCell_Standalone.gnb.cellularNic packetDropNoCarrier:count 0
scalar SingleCell_Standalone.gnb.cellularNic packetDropNoCarrier:sum(packetBytes) 0
scalar SingleCell_Standalone.gnb.pppIf.queue queueLength:last 0
scalar SingleCell_Standalone.gnb.pppIf.queue queueLength:max 0
scalar SingleCell_Standalone.gnb.pppIf.queue queueLength:timeavg 0
scalar SingleCell_Standalone.gnb.pppIf.queue queueBitLength:last 0
scalar SingleCell_Standalone.gnb.pppIf.queue queueBitLength:max 0
scalar SingleCell_Standalone.gnb.pppIf.queue queueBitLength:timeavg 0
scalar SingleCell_Standalone.gnb.pppIf.queue outgoingPackets:count 0
scalar SingleCell_Standalone.gnb.pppIf.queue outgoingPacketLengths:sum 0
scalar SingleCell_Standalone.gnb.pppIf.queue incomingPackets:count 0
scalar SingleCell_Standalone.gnb.pppIf.queue incomingPacketLengths:sum 0
scalar SingleCell_Standalone.gnb.pppIf.queue droppedPacketsQueueOverflow:count 0
scalar SingleCell_Standalone.gnb.pppIf.queue droppedPacketLengthsQueueOverflow:sum 0
scalar SingleCell_Standalone.gnb.pppIf.ppp transmissionState:timeavg -nan
scalar SingleCell_Standalone.gnb.pppIf.ppp rxPkOk:count 900
scalar SingleCell_Standalone.gnb.pppIf.ppp rxPkOk:sum(packetBytes) 99900
scalar SingleCell_Standalone.gnb.pppIf.ppp txPk:count 0
scalar SingleCell_Standalone.gnb.pppIf.ppp txPk:sum(packetBytes) 0
scalar SingleCell_Standalone.gnb.pppIf.ppp rcvdPkFromHl:count 0
scalar SingleCell_Standalone.gnb.pppIf.ppp rcvdPkFromHl:sum(packetBytes) 0
scalar SingleCell_Standalone.gnb.pppIf.ppp passedUpPk:count 900
scalar SingleCell_Standalone.gnb.pppIf.ppp passedUpPk:sum(packetBytes) 93600
scalar SingleCell_Standalone.gnb.pppIf.ppp packetDropIncorrectlyReceived:count 0
scalar SingleCell_Standalone.gnb.pppIf.ppp packetDropIncorrectlyReceived:sum(packetBytes) 0
scalar SingleCell_Standalone.gnb.pppIf.ppp packetDropInterfaceDown:count 0
scalar SingleCell_Standalone.gnb.pppIf.ppp packetDropInterfaceDown:sum(packetBytes) 0
scalar SingleCell_Standalone.gnb.pppIf packetDropInterfaceDown:count 0
scalar SingleCell_Standalone.gnb.pppIf packetDropInterfaceDown:sum(packetBytes) 0
scalar SingleCell_Standalone.gnb.pppIf packetDropNoCarrier:count 0
scalar SingleCell_Standalone.gnb.pppIf packetDropNoCarrier:sum(packetBytes) 0
scalar SingleCell_Standalone.gnb.pppMEHostIf.queue queueLength:last 0
scalar SingleCell_Standalone.gnb.pppMEHostIf.queue queueLength:max 0
scalar SingleCell_Standalone.gnb.pppMEHostIf.queue queueLength:timeavg 0
scalar SingleCell_Standalone.gnb.pppMEHostIf.queue queueBitLength:last 0
scalar SingleCell_Standalone.gnb.pppMEHostIf.queue queueBitLength:max 0
scalar SingleCell_Standalone.gnb.pppMEHostIf.queue queueBitLength:timeavg 0
scalar SingleCell_Standalone.gnb.pppMEHostIf.queue outgoingPackets:count 0
scalar SingleCell_Standalone.gnb.pppMEHostIf.queue outgoingPacketLengths:sum 0
scalar SingleCell_Standalone.gnb.pppMEHostIf.queue incomingPackets:count 0
scalar SingleCell_Standalone.gnb.pppMEHostIf.queue incomingPacketLengths:sum 0
scalar SingleCell_Standalone.gnb.pppMEHostIf.queue droppedPacketsQueueOverflow:count 0
scalar SingleCell_Standalone.gnb.pppMEHostIf.queue droppedPacketLengthsQueueOverflow:sum 0
scalar SingleCell_Standalone.gnb.pppMEHostIf.ppp transmissionState:timeavg -nan
scalar SingleCell_Standalone.gnb.pppMEHostIf.ppp rxPkOk:count 0
scalar SingleCell_Standalone.gnb.pppMEHostIf.ppp rxPkOk:sum(packetBytes) 0
scalar SingleCell_Standalone.gnb.pppMEHostIf.ppp txPk:count 0
scalar SingleCell_Standalone.gnb.pppMEHostIf.ppp txPk:sum(packetBytes) 0
scalar SingleCell_Standalone.gnb.pppMEHostIf.ppp rcvdPkFromHl:count 0
scalar SingleCell_Standalone.gnb.pppMEHostIf.ppp rcvdPkFromHl:sum(packetBytes) 0
scalar SingleCell_Standalone.gnb.pppMEHostIf.ppp passedUpPk:count 0
scalar SingleCell_Standalone.gnb.pppMEHostIf.ppp passedUpPk:sum(packetBytes) 0
scalar SingleCell_Standalone.gnb.pppMEHostIf.ppp packetDropIncorrectlyReceived:count 0
scalar SingleCell_Standalone.gnb.pppMEHostIf.ppp packetDropIncorrectlyReceived:sum(packetBytes) 0
scalar SingleCell_Standalone.gnb.pppMEHostIf.ppp packetDropInterfaceDown:count 0
scalar SingleCell_Standalone.gnb.pppMEHostIf.ppp packetDropInterfaceDown:sum(packetBytes) 0
scalar SingleCell_Standalone.gnb.pppMEHostIf packetDropInterfaceDown:count 0
scalar SingleCell_Standalone.gnb.pppMEHostIf packetDropInterfaceDown:sum(packetBytes) 0
scalar SingleCell_Standalone.gnb.pppMEHostIf packetDropNoCarrier:count 0
scalar SingleCell_Standalone.gnb.pppMEHostIf packetDropNoCarrier:sum(packetBytes) 0
scalar SingleCell_Standalone.gnb.ipv4.ip packetDropAddressResolutionFailed:count 0
scalar SingleCell_Standalone.gnb.ipv4.ip packetDropAddressResolutionFailed:sum(packetBytes) 0
scalar SingleCell_Standalone.gnb.ipv4.ip packetDropHopLimitReached:count 0
scalar SingleCell_Standalone.gnb.ipv4.ip packetDropHopLimitReached:sum(packetBytes) 0
scalar SingleCell_Standalone.gnb.ipv4.ip packetDropForwardingDisabled:count 0
scalar SingleCell_Standalone.gnb.ipv4.ip packetDropForwardingDisabled:sum(packetBytes) 0
scalar SingleCell_Standalone.gnb.ipv4.ip packetDropNoInterfaceFound:count 0
scalar SingleCell_Standalone.gnb.ipv4.ip packetDropNoInterfaceFound:sum(packetBytes) 0
scalar SingleCell_Standalone.gnb.ipv4.ip packetDropNoRouteFound:count 0
scalar SingleCell_Standalone.gnb.ipv4.ip packetDropNoRouteFound:sum(packetBytes) 0
scalar SingleCell_Standalone.gnb.ipv4.ip packetDropUndefined:count 0
scalar SingleCell_Standalone.gnb.ipv4.ip packetDropUndefined:sum(packetBytes) 0
scalar SingleCell_Standalone.gnb.ipv4.arp arpResolutionFailed:count 0
scalar SingleCell_Standalone.gnb.ipv4.arp arpResolutionCompleted:count 0
scalar SingleCell_Standalone.gnb.ipv4.arp arpResolutionInitiated:count 0
scalar SingleCell_Standalone.gnb.ipv4.arp arpReplySent:count 0
scalar SingleCell_Standalone.gnb.ipv4.arp arpReplySent:sum(packetBytes) 0
scalar SingleCell_Standalone.gnb.ipv4.arp arpRequestSent:count 0
scalar SingleCell_Standalone.gnb.ipv4.arp arpRequestSent:sum(packetBytes) 0
scalar SingleCell_Standalone.gnb.udp packetReceived:count 900
scalar SingleCell_Standalone.gnb.udp packetReceived:sum(packetBytes) 75600
scalar SingleCell_Standalone.gnb.udp packetSent:count 0
scalar SingleCell_Standalone.gnb.udp packetSent:sum(packetBytes) 0
scalar SingleCell_Standalone.gnb.udp passedUpPk:count 900
scalar SingleCell_Standalone.gnb.udp droppedPkWrongPort:count 0
scalar SingleCell_Standalone.gnb.udp droppedPkBadChecksum:count 0
scalar SingleCell_Standalone.bgCell[0].bgScheduler bgAvgServedBlocksUl:mean 0
scalar SingleCell_Standalone.bgCell[0].bgScheduler bgAvgServedBlocksDl:mean 6
scalar SingleCell_Standalone.bgCell[0].bgTrafficGenerator.bgUE[0].generator bgHarqErrorRateUl:mean -nan
scalar SingleCell_Standalone.bgCell[0].bgTrafficGenerator.bgUE[0].generator bgHarqErrorRateUl:count 0
scalar SingleCell_Standalone.bgCell[0].bgTrafficGenerator.bgUE[0].generator bgHarqErrorRateDl:mean 0.095896946564885496
scalar SingleCell_Standalone.bgCell[0].bgTrafficGenerator.bgUE[0].generator bgHarqErrorRateDl:count 2096
scalar SingleCell_Standalone.bgCell[0].bgTrafficGenerator.bgUE[0].generator bgAverageCqiUl:mean -nan
scalar SingleCell_Standalone.bgCell[0].bgTrafficGenerator.bgUE[0].generator bgAverageCqiUl:count 0
scalar SingleCell_Standalone.bgCell[0].bgTrafficGenerator.bgUE[0].generator bgAverageCqiDl:mean 12.625954198473282
scalar SingleCell_Standalone.bgCell[0].bgTrafficGenerator.bgUE[0].generator bgAverageCqiDl:count 2096
scalar SingleCell_Standalone.bgCell[0].bgTrafficGenerator.bgUE[0].generator bgMeasuredSinrUl:mean -nan
scalar SingleCell_Standalone.bgCell[0].bgTrafficGenerator.bgUE[0].generator bgMeasuredSinrUl:count 0
scalar SingleCell_Standalone.bgCell[0].bgTrafficGenerator.bgUE[0].generator bgMeasuredSinrDl:mean 25.902088370473134
scalar SingleCell_Standalone.bgCell[0].bgTrafficGenerator.bgUE[0].generator bgMeasuredSinrDl:count 1500
scalar SingleCell_Standalone.bgCell[0].bgTrafficGenerator.bgUE[1].generator bgHarqErrorRateUl:mean -nan
scalar SingleCell_Standalone.bgCell[0].bgTrafficGenerator.bgUE[1].generator bgHarqErrorRateUl:count 0
scalar SingleCell_Standalone.bgCell[0].bgTrafficGenerator.bgUE[1].generator bgHarqErrorRateDl:mean -nan
scalar SingleCell_Standalone.bgCell[0].bgTrafficGenerator.bgUE[1].generator bgHarqErrorRateDl:count 0
scalar SingleCell_Standalone.bgCell[0].bgTrafficGenerator.bgUE[1].generator bgAverageCqiUl:mean -nan
scalar SingleCell_Standalone.bgCell[0].bgTrafficGenerator.bgUE[1].generator bgAverageCqiUl:count 0
scalar SingleCell_Standalone.bgCell[0].bgTrafficGenerator.bgUE[1].generator bgAverageCqiDl:mean -nan
scalar SingleCell_Standalone.bgCell[0].bgTrafficGenerator.bgUE[1].generator bgAverageCqiDl:count 0
scalar SingleCell_Standalone.bgCell[0].bgTrafficGenerator.bgUE[1].generator bgMeasuredSinrUl:mean -nan
scalar SingleCell_Standalone.bgCell[0].bgTrafficGenerator.bgUE[1].generator bgMeasuredSinrUl:count 0
scalar SingleCell_Standalone.bgCell[0].bgTrafficGenerator.bgUE[1].generator bgMeasuredSinrDl:mean 4.3532834282870692
scalar SingleCell_Standalone.bgCell[0].bgTrafficGenerator.bgUE[1].generator bgMeasuredSinrDl:count 1500
scalar SingleCell_Standalone.bgCell[0].bgTrafficGenerator.bgUE[2].generator bgHarqErrorRateUl:mean -nan
scalar SingleCell_Standalone.bgCell[0].bgTrafficGenerator.bgUE[2].generator bgHarqErrorRateUl:count 0
scalar SingleCell_Standalone.bgCell[0].bgTrafficGenerator.bgUE[2].generator bgHarqErrorRateDl:mean 0.088773885350318466
scalar SingleCell_Standalone.bgCell[0].bgTrafficGenerator.bgUE[2].generator bgHarqErrorRateDl:count 2512
scalar SingleCell_Standalone.bgCell[0].bgTrafficGenerator.bgUE[2].generator bgAverageCqiUl:mean -nan
scalar SingleCell_Standalone.bgCell[0].bgTrafficGenerator.bgUE[2].generator bgAverageCqiUl:count 0
scalar SingleCell_Standalone.bgCell[0].bgTrafficGenerator.bgUE[2].generator bgAverageCqiDl:mean 10.832006369426752
scalar SingleCell_Standalone.bgCell[0].bgTrafficGenerator.bgUE[2].generator bgAverageCqiDl:count 2512
scalar SingleCell_Standalone.bgCell[0].bgTrafficGenerator.bgUE[2].generator bgMeasuredSinrUl:mean -nan
scalar SingleCell_Standalone.bgCell[0].bgTrafficGenerator.bgUE[2].generator bgMeasuredSinrUl:count 0
scalar SingleCell_Standalone.bgCell[0].bgTrafficGenerator.bgUE[2].generator bgMeasuredSinrDl:mean 15.646563677376927
scalar SingleCell_Standalone.bgCell[0].bgTrafficGenerator.bgUE[2].generator bgMeasuredSinrDl:count 1500
scalar SingleCell_Standalone.bgCell[0].bgTrafficGenerator.bgUE[3].generator bgHarqErrorRateUl:mean -nan
scalar SingleCell_Standalone.bgCell[0].bgTrafficGenerator.bgUE[3].generator bgHarqErrorRateUl:count 0
scalar SingleCell_Standalone.bgCell[0].bgTrafficGenerator.bgUE[3].generator bgHarqErrorRateDl:mean -nan
scalar SingleCell_Standalone.bgCell[0].bgTrafficGenerator.bgUE[3].generator bgHarqErrorRateDl:count 0
scalar SingleCell_Standalone.bgCell[0].bgTrafficGenerator.bgUE[3].generator bgAverageCqiUl:mean -nan
scalar SingleCell_Standalone.bgCell[0].bgTrafficGenerator.bgUE[3].generator bgAverageCqiUl:count 0
scalar SingleCell_Standalone.bgCell[0].bgTrafficGenerator.bgUE[3].generator bgAverageCqiDl:mean -nan
scalar SingleCell_Standalone.bgCell[0].bgTrafficGenerator.bgUE[3].generator bgAverageCqiDl:count 0
scalar SingleCell_Standalone.bgCell[0].bgTrafficGenerator.bgUE[3].generator bgMeasuredSinrUl:mean -nan
scalar SingleCell_Standalone.bgCell[0].bgTrafficGenerator.bgUE[3].generator bgMeasuredSinrUl:count 0
scalar SingleCell_Standalone.bgCell[0].bgTrafficGenerator.bgUE[3].generator bgMeasuredSinrDl:mean 2.0392004681109857
scalar SingleCell_Standalone.bgCell[0].bgTrafficGenerator.bgUE[3].generator bgMeasuredSinrDl:count 1500
scalar SingleCell_Standalone.bgCell[0].bgTrafficGenerator.bgUE[4].generator bgHarqErrorRateUl:mean -nan
scalar SingleCell_Standalone.bgCell[0].bgTrafficGenerator.bgUE[4].generator bgHarqErrorRateUl:count 0
scalar SingleCell_Standalone.bgCell[0].bgTrafficGenerator.bgUE[4].generator bgHarqErrorRateDl:mean 0.099083814048184601
scalar SingleCell_Standalone.bgCell[0].bgTrafficGenerator.bgUE[4].generator bgHarqErrorRateDl:count 2947
scalar SingleCell_Standalone.bgCell[0].bgTrafficGenerator.bgUE[4].generator bgAverageCqiUl:mean -nan
scalar SingleCell_Standalone.bgCell[0].bgTrafficGenerator.bgUE[4].generator bgAverageCqiUl:count 0
scalar SingleCell_Standalone.bgCell[0].bgTrafficGenerator.bgUE[4].generator bgAverageCqiDl:mean 11.397353240583644
scalar SingleCell_Standalone.bgCell[0].bgTrafficGenerator.bgUE[4].generator bgAverageCqiDl:count 2947
scalar SingleCell_Standalone.bgCell[0].bgTrafficGenerator.bgUE[4].generator bgMeasuredSinrUl:mean -nan
scalar SingleCell_Standalone.bgCell[0].bgTrafficGenerator.bgUE[4].generator bgMeasuredSinrUl:count 0
scalar SingleCell_Standalone.bgCell[0].bgTrafficGenerator.bgUE[4].generator bgMeasuredSinrDl:mean 21.389141457652187
scalar SingleCell_Standalone.bgCell[0].bgTrafficGenerator.bgUE[4].generator bgMeasuredSinrDl:count 1500
scalar SingleCell_Standalone.bgCell[0].bgTrafficGenerator.bgUE[5].generator bgHarqErrorRateUl:mean -nan
scalar SingleCell_Standalone.bgCell[0].bgTrafficGenerator.bgUE[5].generator bgHarqErrorRateUl:count 0
scalar SingleCell_Standalone.bgCell[0].bgTrafficGenerator.bgUE[5].generator bgHarqErrorRateDl:mean -nan
scalar SingleCell_Standalone.bgCell[0].bgTrafficGenerator.bgUE[5].generator bgHarqErrorRateDl:count 0
scalar SingleCell_Standalone.bgCell[0].bgTrafficGenerator.bgUE[5].generator bgAverageCqiUl:mean -nan
scalar SingleCell_Standalone.bgCell[0].bgTrafficGenerator.bgUE[5].generator bgAverageCqiUl:count 0
scalar SingleCell_Standalone.bgCell[0].bgTrafficGenerator.bgUE[5].generator bgAverageCqiDl:mean -nan
scalar SingleCell_Standalone.bgCell[0].bgTrafficGenerator.bgUE[5].generator bgAverageCqiDl:count 0
scalar SingleCell_Standalone.bgCell[0].bgTrafficGenerator.bgUE[5].generator bgMeasuredSinrUl:mean -nan
scalar SingleCell_Standalone.bgCell[0].bgTrafficGenerator.bgUE[5].generator bgMeasuredSinrUl:count 0
scalar SingleCell_Standalone.bgCell[0].bgTrafficGenerator.bgUE[5].generator bgMeasuredSinrDl:mean 0.7023079861501712
scalar SingleCell_Standalone.bgCell[0].bgTrafficGenerator.bgUE[5].generator bgMeasuredSinrDl:count 1500
scalar SingleCell_Standalone.bgCell[0].bgTrafficGenerator.bgUE[6].generator bgHarqErrorRateUl:mean -nan
scalar SingleCell_Standalone.bgCell[0].bgTrafficGenerator.bgUE[6].generator bgHarqErrorRateUl:count 0
scalar SingleCell_Standalone.bgCell[0].bgTrafficGenerator.bgUE[6].generator bgHarqErrorRateDl:mean 0.10985703536493605
scalar SingleCell_Standalone.bgCell[0].bgTrafficGenerator.bgUE[6].generator bgHarqErrorRateDl:count 2658
scalar SingleCell_Standalone.bgCell[0].bgTrafficGenerator.bgUE[6].generator bgAverageCqiUl:mean -nan
scalar SingleCell_Standalone.bgCell[0].bgTrafficGenerator.bgUE[6].generator bgAverageCqiUl:count 0
scalar SingleCell_Standalone.bgCell[0].bgTrafficGenerator.bgUE[6].generator bgAverageCqiDl:mean 10.743416102332581
scalar SingleCell_Standalone.bgCell[0].bgTrafficGenerator.bgUE[6].generator bgAverageCqiDl:count 2658
scalar SingleCell_Standalone.bgCell[0].bgTrafficGenerator.bgUE[6].generator bgMeasuredSinrUl:mean -nan
scalar SingleCell_Standalone.bgCell[0].bgTrafficGenerator.bgUE[6].generator bgMeasuredSinrUl:count 0
scalar SingleCell_Standalone.bgCell[0].bgTrafficGenerator.bgUE[6].generator bgMeasuredSinrDl:mean 17.210807014070486
scalar SingleCell_Standalone.bgCell[0].bgTrafficGenerator.bgUE[6].generator bgMeasuredSinrDl:count 1500
scalar SingleCell_Standalone.bgCell[0].bgTrafficGenerator.bgUE[7].generator bgHarqErrorRateUl:mean -nan
scalar SingleCell_Standalone.bgCell[0].bgTrafficGenerator.bgUE[7].generator bgHarqErrorRateUl:count 0
scalar SingleCell_Standalone.bgCell[0].bgTrafficGenerator.bgUE[7].generator bgHarqErrorRateDl:mean 0.10735826296743065
scalar SingleCell_Standalone.bgCell[0].bgTrafficGenerator.bgUE[7].generator bgHarqErrorRateDl:count 2487
scalar SingleCell_Standalone.bgCell[0].bgTrafficGenerator.bgUE[7].generator bgAverageCqiUl:mean -nan
scalar SingleCell_Standalone.bgCell[0].bgTrafficGenerator.bgUE[7].generator bgAverageCqiUl:count 0
scalar SingleCell_Standalone.bgCell[0].bgTrafficGenerator.bgUE[7].generator bgAverageCqiDl:mean 10.67470848411741
scalar SingleCell_Standalone.bgCell[0].bgTrafficGenerator.bgUE[7].generator bgAverageCqiDl:count 2487
scalar SingleCell_Standalone.bgCell[0].bgTrafficGenerator.bgUE[7].generator bgMeasuredSinrUl:mean -nan
scalar SingleCell_Standalone.bgCell[0].bgTrafficGenerator.bgUE[7].generator bgMeasuredSinrUl:count 0
scalar SingleCell_Standalone.bgCell[0].bgTrafficGenerator.bgUE[7].generator bgMeasuredSinrDl:mean 17.557113054979226
scalar SingleCell_Standalone.bgCell[0].bgTrafficGenerator.bgUE[7].generator bgMeasuredSinrDl:count 1500
scalar SingleCell_Standalone.bgCell[0].bgTrafficGenerator.bgUE[8].generator bgHarqErrorRateUl:mean -nan
scalar SingleCell_Standalone.bgCell[0].bgTrafficGenerator.bgUE[8].generator bgHarqErrorRateUl:count 0
scalar SingleCell_Standalone.bgCell[0].bgTrafficGenerator.bgUE[8].generator bgHarqErrorRateDl:mean 0.11834319526627218
scalar SingleCell_Standalone.bgCell[0].bgTrafficGenerator.bgUE[8].generator bgHarqErrorRateDl:count 169
scalar SingleCell_Standalone.bgCell[0].bgTrafficGenerator.bgUE[8].generator bgAverageCqiUl:mean -nan
scalar SingleCell_Standalone.bgCell[0].bgTrafficGenerator.bgUE[8].generator bgAverageCqiUl:count 0
scalar SingleCell_Standalone.bgCell[0].bgTrafficGenerator.bgUE[8].generator bgAverageCqiDl:mean 9.8698224852071004
scalar SingleCell_Standalone.bgCell[0].bgTrafficGenerator.bgUE[8].generator bgAverageCqiDl:count 169
scalar SingleCell_Standalone.bgCell[0].bgTrafficGenerator.bgUE[8].generator bgMeasuredSinrUl:mean -nan
scalar SingleCell_Standalone.bgCell[0].bgTrafficGenerator.bgUE[8].generator bgMeasuredSinrUl:count 0
scalar SingleCell_Standalone.bgCell[0].bgTrafficGenerator.bgUE[8].generator bgMeasuredSinrDl:mean 13.170833312667135
scalar SingleCell_Standalone.bgCell[0].bgTrafficGenerator.bgUE[8].generator bgMeasuredSinrDl:count 1500
scalar SingleCell_Standalone.bgCell[0].bgTrafficGenerator.bgUE[9].generator bgHarqErrorRateUl:mean -nan
scalar SingleCell_Standalone.bgCell[0].bgTrafficGenerator.bgUE[9].generator bgHarqErrorRateUl:count 0
scalar SingleCell_Standalone.bgCell[0].bgTrafficGenerator.bgUE[9].generator bgHarqErrorRateDl:mean 0.10497237569060773
scalar SingleCell_Standalone.bgCell[0].bgTrafficGenerator.bgUE[9].generator bgHarqErrorRateDl:count 181
scalar SingleCell_Standalone.bgCell[0].bgTrafficGenerator.bgUE[9].generator bgAverageCqiUl:mean -nan
scalar SingleCell_Standalone.bgCell[0].bgTrafficGenerator.bgUE[9].generator bgAverageCqiUl:count 0
scalar SingleCell_Standalone.bgCell[0].bgTrafficGenerator.bgUE[9].generator bgAverageCqiDl:mean 9.8563535911602216
scalar SingleCell_Standalone.bgCell[0].bgTrafficGenerator.bgUE[9].generator bgAverageCqiDl:count 181
scalar SingleCell_Standalone.bgCell[0].bgTrafficGenerator.bgUE[9].generator bgMeasuredSinrUl:mean -nan
scalar SingleCell_Standalone.bgCell[0].bgTrafficGenerator.bgUE[9].generator bgMeasuredSinrUl:count 0
scalar SingleCell_Standalone.bgCell[0].bgTrafficGenerator.bgUE[9].generator bgMeasuredSinrDl:mean 14.033851195721269
scalar SingleCell_Standalone.bgCell[0].bgTrafficGenerator.bgUE[9].generator bgMeasuredSinrDl:count 1500
scalar SingleCell_Standalone.ue[0].lo[0].lo rcvdPkFromHl:count 0
scalar SingleCell_Standalone.ue[0].lo[0].lo rcvdPkFromHl:sum(packetBytes) 0
scalar SingleCell_Standalone.ue[0].lo[0].lo passedUpPk:count 0
scalar SingleCell_Standalone.ue[0].lo[0].lo passedUpPk:sum(packetBytes) 0
scalar SingleCell_Standalone.ue[0].lo[0] packetDropInterfaceDown:count 0
scalar SingleCell_Standalone.ue[0].lo[0] packetDropInterfaceDown:sum(packetBytes) 0
scalar SingleCell_Standalone.ue[0].lo[0] packetDropNoCarrier:count 0
scalar SingleCell_Standalone.ue[0].lo[0] packetDropNoCarrier:sum(packetBytes) 0
scalar SingleCell_Standalone.ue[0].cellularNic.pdcp sentPacketToLowerLayer:count 0
scalar SingleCell_Standalone.ue[0].cellularNic.pdcp sentPacketToLowerLayer:sum(packetBytes) 0
scalar SingleCell_Standalone.ue[0].cellularNic.pdcp sentPacketToUpperLayer:count 900
scalar SingleCell_Standalone.ue[0].cellularNic.pdcp sentPacketToUpperLayer:sum(packetBytes) 61200
scalar SingleCell_Standalone.ue[0].cellularNic.pdcp receivedPacketFromLowerLayer:count 900
scalar SingleCell_Standalone.ue[0].cellularNic.pdcp receivedPacketFromLowerLayer:sum(packetBytes) 62100
scalar SingleCell_Standalone.ue[0].cellularNic.pdcp receivedPacketFromUpperLayer:count 0
scalar SingleCell_Standalone.ue[0].cellularNic.pdcp receivedPacketFromUpperLayer:sum(packetBytes) 0
scalar SingleCell_Standalone.ue[0].cellularNic.rlc.tm rlcPacketLossUl:mean -nan
scalar SingleCell_Standalone.ue[0].cellularNic.rlc.tm rlcPacketLossUl:sum 0
scalar SingleCell_Standalone.ue[0].cellularNic.rlc.tm rlcPacketLossDl:mean -nan
scalar SingleCell_Standalone.ue[0].cellularNic.rlc.tm rlcPacketLossDl:sum 0
scalar SingleCell_Standalone.ue[0].cellularNic.rlc.tm sentPacketToLowerLayer:count 0
scalar SingleCell_Standalone.ue[0].cellularNic.rlc.tm sentPacketToLowerLayer:sum(packetBytes) 0
scalar SingleCell_Standalone.ue[0].cellularNic.rlc.tm sentPacketToUpperLayer:count 0
scalar SingleCell_Standalone.ue[0].cellularNic.rlc.tm sentPacketToUpperLayer:sum(packetBytes) 0
scalar SingleCell_Standalone.ue[0].cellularNic.rlc.tm receivedPacketFromLowerLayer:count 0
scalar SingleCell_Standalone.ue[0].cellularNic.rlc.tm receivedPacketFromLowerLayer:sum(packetBytes) 0
scalar SingleCell_Standalone.ue[0].cellularNic.rlc.tm receivedPacketFromUpperLayer:count 0
scalar SingleCell_Standalone.ue[0].cellularNic.rlc.tm receivedPacketFromUpperLayer:sum(packetBytes) 0
scalar SingleCell_Standalone.ue[0].cellularNic.rlc.um rlcCellThroughputD2D:simu5g_rateavg -nan
scalar SingleCell_Standalone.ue[0].cellularNic.rlc.um rlcPduThroughputD2D:simu5g_rateavg -nan
scalar SingleCell_Standalone.ue[0].cellularNic.rlc.um rlcPduDelayD2D:mean -nan
scalar SingleCell_Standalone.ue[0].cellularNic.rlc.um rlcThroughputD2D:simu5g_rateavg -nan
scalar SingleCell_Standalone.ue[0].cellularNic.rlc.um rlcDelayD2D:mean -nan
scalar SingleCell_Standalone.ue[0].cellularNic.rlc.um rlcCellThroughputUl:simu5g_rateavg -nan
scalar SingleCell_Standalone.ue[0].cellularNic.rlc.um rlcCellThroughputDl:simu5g_rateavg -nan
scalar SingleCell_Standalone.ue[0].cellularNic.rlc.um rlcPduThroughputUl:simu5g_rateavg -nan
scalar SingleCell_Standalone.ue[0].cellularNic.rlc.um rlcPduThroughputDl:simu5g_rateavg -nan
scalar SingleCell_Standalone.ue[0].cellularNic.rlc.um rlcPduDelayUl:mean -nan
scalar SingleCell_Standalone.ue[0].cellularNic.rlc.um rlcPduDelayDl:mean -nan
scalar SingleCell_Standalone.ue[0].cellularNic.rlc.um rlcThroughputUl:simu5g_rateavg -nan
scalar SingleCell_Standalone.ue[0].cellularNic.rlc.um rlcThroughputDl:simu5g_rateavg -nan
scalar SingleCell_Standalone.ue[0].cellularNic.rlc.um rlcDelayUl:mean -nan
scalar SingleCell_Standalone.ue[0].cellularNic.rlc.um rlcDelayDl:mean -nan
scalar SingleCell_Standalone.ue[0].cellularNic.rlc.um sentPacketToLowerLayer:count 0
scalar SingleCell_Standalone.ue[0].cellularNic.rlc.um sentPacketToLowerLayer:sum(packetBytes) 0
scalar SingleCell_Standalone.ue[0].cellularNic.rlc.um sentPacketToUpperLayer:count 0
scalar SingleCell_Standalone.ue[0].cellularNic.rlc.um sentPacketToUpperLayer:sum(packetBytes) 0
scalar SingleCell_Standalone.ue[0].cellularNic.rlc.um receivedPacketFromLowerLayer:count 0
scalar SingleCell_Standalone.ue[0].cellularNic.rlc.um receivedPacketFromLowerLayer:sum(packetBytes) 0
scalar SingleCell_Standalone.ue[0].cellularNic.rlc.um receivedPacketFromUpperLayer:count 0
scalar SingleCell_Standalone.ue[0].cellularNic.rlc.um receivedPacketFromUpperLayer:sum(packetBytes) 0
scalar SingleCell_Standalone.ue[0].cellularNic.rlc.am rlcPacketLossTotal:mean -nan
scalar SingleCell_Standalone.ue[0].cellularNic.rlc.am rlcCellThroughputUl:simu5g_rateavg -nan
scalar SingleCell_Standalone.ue[0].cellularNic.rlc.am rlcCellThroughputDl:simu5g_rateavg -nan
scalar SingleCell_Standalone.ue[0].cellularNic.rlc.am rlcPduThroughputUl:simu5g_rateavg -nan
scalar SingleCell_Standalone.ue[0].cellularNic.rlc.am rlcPduThroughputDl:simu5g_rateavg -nan
scalar SingleCell_Standalone.ue[0].cellularNic.rlc.am rlcPduDelayUl:mean -nan
scalar SingleCell_Standalone.ue[0].cellularNic.rlc.am rlcPduDelayDl:mean -nan
scalar SingleCell_Standalone.ue[0].cellularNic.rlc.am rlcThroughputUl:simu5g_rateavg -nan
scalar SingleCell_Standalone.ue[0].cellularNic.rlc.am rlcThroughputDl:simu5g_rateavg -nan
scalar SingleCell_Standalone.ue[0].cellularNic.rlc.am rlcDelayUl:mean -nan
scalar SingleCell_Standalone.ue[0].cellularNic.rlc.am rlcDelayDl:mean -nan
scalar SingleCell_Standalone.ue[0].cellularNic.rlc.am rlcPduPacketLossUl:mean -nan
scalar SingleCell_Standalone.ue[0].cellularNic.rlc.am rlcPduPacketLossDl:mean -nan
scalar SingleCell_Standalone.ue[0].cellularNic.rlc.am rlcPacketLossUl:mean -nan
scalar SingleCell_Standalone.ue[0].cellularNic.rlc.am rlcPacketLossDl:mean -nan
scalar SingleCell_Standalone.ue[0].cellularNic.rlc.am rlcCellPacketLossUl:mean -nan
scalar SingleCell_Standalone.ue[0].cellularNic.rlc.am rlcCellPacketLossDl:mean -nan
scalar SingleCell_Standalone.ue[0].cellularNic.mac harqErrorRate_4th_D2D:mean -nan
scalar SingleCell_Standalone.ue[0].cellularNic.mac harqErrorRate_3rd_D2D:mean -nan
scalar SingleCell_Standalone.ue[0].cellularNic.mac harqErrorRate_2nd_D2D:mean -nan
scalar SingleCell_Standalone.ue[0].cellularNic.mac harqErrorRate_1st_D2D:mean -nan
scalar SingleCell_Standalone.ue[0].cellularNic.mac harqErrorRateD2D:mean -nan
scalar SingleCell_Standalone.ue[0].cellularNic.mac macPacketLossD2D:mean -nan
scalar SingleCell_Standalone.ue[0].cellularNic.mac macDelayD2D:mean -nan
scalar SingleCell_Standalone.ue[0].cellularNic.mac macThroughputD2D:simu5g_rateavg -nan
scalar SingleCell_Standalone.ue[0].cellularNic.mac harqTxAttemptsUl:mean -nan
scalar SingleCell_Standalone.ue[0].cellularNic.mac harqTxAttemptsDl:mean -nan
scalar SingleCell_Standalone.ue[0].cellularNic.mac harqErrorRate_4th_Ul:mean -nan
scalar SingleCell_Standalone.ue[0].cellularNic.mac harqErrorRate_4th_Dl:mean -nan
scalar SingleCell_Standalone.ue[0].cellularNic.mac harqErrorRate_3rd_Ul:mean -nan
scalar SingleCell_Standalone.ue[0].cellularNic.mac harqErrorRate_3rd_Dl:mean -nan
scalar SingleCell_Standalone.ue[0].cellularNic.mac harqErrorRate_2nd_Ul:mean -nan
scalar SingleCell_Standalone.ue[0].cellularNic.mac harqErrorRate_2nd_Dl:mean -nan
scalar SingleCell_Standalone.ue[0].cellularNic.mac harqErrorRate_1st_Ul:mean -nan
scalar SingleCell_Standalone.ue[0].cellularNic.mac harqErrorRate_1st_Dl:mean -nan
scalar SingleCell_Standalone.ue[0].cellularNic.mac harqErrorRateUl:mean -nan
scalar SingleCell_Standalone.ue[0].cellularNic.mac harqErrorRateDl:mean -nan
scalar SingleCell_Standalone.ue[0].cellularNic.mac macCellPacketLossUl:mean -nan
scalar SingleCell_Standalone.ue[0].cellularNic.mac macCellPacketLossDl:mean -nan
scalar SingleCell_Standalone.ue[0].cellularNic.mac macPacketLossUl:mean -nan
scalar SingleCell_Standalone.ue[0].cellularNic.mac macPacketLossDl:mean -nan
scalar SingleCell_Standalone.ue[0].cellularNic.mac macThroughputUl:simu5g_rateavg -nan
scalar SingleCell_Standalone.ue[0].cellularNic.mac macThroughputDl:simu5g_rateavg -nan
scalar SingleCell_Standalone.ue[0].cellularNic.mac macDelayUl:mean -nan
scalar SingleCell_Standalone.ue[0].cellularNic.mac macDelayDl:mean -nan
scalar SingleCell_Standalone.ue[0].cellularNic.mac macCellThroughputUl:simu5g_rateavg -nan
scalar SingleCell_Standalone.ue[0].cellularNic.mac macCellThroughputDl:simu5g_rateavg -nan
scalar SingleCell_Standalone.ue[0].cellularNic.mac rcvdD2DModeSwitchNotification:count 0
scalar SingleCell_Standalone.ue[0].cellularNic.mac sentPacketToLowerLayer:count 0
scalar SingleCell_Standalone.ue[0].cellularNic.mac sentPacketToLowerLayer:sum(packetBytes) 0
scalar SingleCell_Standalone.ue[0].cellularNic.mac sentPacketToUpperLayer:count 0
scalar SingleCell_Standalone.ue[0].cellularNic.mac sentPacketToUpperLayer:sum(packetBytes) 0
scalar SingleCell_Standalone.ue[0].cellularNic.mac receivedPacketFromLowerLayer:count 0
scalar SingleCell_Standalone.ue[0].cellularNic.mac receivedPacketFromLowerLayer:sum(packetBytes) 0
scalar SingleCell_Standalone.ue[0].cellularNic.mac receivedPacketFromUpperLayer:count 0
scalar SingleCell_Standalone.ue[0].cellularNic.mac receivedPacketFromUpperLayer:sum(packetBytes) 0
scalar SingleCell_Standalone.ue[0].cellularNic.mac macBufferOverFlowD2D:mean -nan
scalar SingleCell_Standalone.ue[0].cellularNic.mac macBufferOverFlowUl:mean -nan
scalar SingleCell_Standalone.ue[0].cellularNic.mac macBufferOverFlowDl:mean -nan
scalar SingleCell_Standalone.ue[0].cellularNic.phy distance:mean -nan
scalar SingleCell_Standalone.ue[0].cellularNic.phy averageCqiD2D:mean -nan
scalar SingleCell_Standalone.ue[0].cellularNic.phy averageCqiUl:mean -nan
scalar SingleCell_Standalone.ue[0].cellularNic.phy averageCqiUl:count 0
scalar SingleCell_Standalone.ue[0].cellularNic.phy averageCqiDl:mean -nan
scalar SingleCell_Standalone.ue[0].cellularNic.phy averageCqiDl:count 0
scalar SingleCell_Standalone.ue[0].cellularNic.channelModel[0] measuredSinrUl:mean -nan
scalar SingleCell_Standalone.ue[0].cellularNic.channelModel[0] measuredSinrDl:mean -nan
scalar SingleCell_Standalone.ue[0].cellularNic.channelModel[0] rcvdSinrD2D:mean -nan
scalar SingleCell_Standalone.ue[0].cellularNic.channelModel[0] rcvdSinrUl:mean -nan
scalar SingleCell_Standalone.ue[0].cellularNic.channelModel[0] rcvdSinrDl:mean -nan
scalar SingleCell_Standalone.ue[0].cellularNic.nrRlc.tm rlcPacketLossUl:mean -nan
scalar SingleCell_Standalone.ue[0].cellularNic.nrRlc.tm rlcPacketLossUl:sum 0
scalar SingleCell_Standalone.ue[0].cellularNic.nrRlc.tm rlcPacketLossDl:mean -nan
scalar SingleCell_Standalone.ue[0].cellularNic.nrRlc.tm rlcPacketLossDl:sum 0
scalar SingleCell_Standalone.ue[0].cellularNic.nrRlc.tm sentPacketToLowerLayer:count 0
scalar SingleCell_Standalone.ue[0].cellularNic.nrRlc.tm sentPacketToLowerLayer:sum(packetBytes) 0
scalar SingleCell_Standalone.ue[0].cellularNic.nrRlc.tm sentPacketToUpperLayer:count 0
scalar SingleCell_Standalone.ue[0].cellularNic.nrRlc.tm sentPacketToUpperLayer:sum(packetBytes) 0
scalar SingleCell_Standalone.ue[0].cellularNic.nrRlc.tm receivedPacketFromLowerLayer:count 0
scalar SingleCell_Standalone.ue[0].cellularNic.nrRlc.tm receivedPacketFromLowerLayer:sum(packetBytes) 0
scalar SingleCell_Standalone.ue[0].cellularNic.nrRlc.tm receivedPacketFromUpperLayer:count 0
scalar SingleCell_Standalone.ue[0].cellularNic.nrRlc.tm receivedPacketFromUpperLayer:sum(packetBytes) 0
scalar SingleCell_Standalone.ue[0].cellularNic.nrRlc.um rlcCellThroughputD2D:simu5g_rateavg -nan
scalar SingleCell_Standalone.ue[0].cellularNic.nrRlc.um rlcPduThroughputD2D:simu5g_rateavg -nan
scalar SingleCell_Standalone.ue[0].cellularNic.nrRlc.um rlcPduDelayD2D:mean -nan
scalar SingleCell_Standalone.ue[0].cellularNic.nrRlc.um rlcThroughputD2D:simu5g_rateavg -nan
scalar SingleCell_Standalone.ue[0].cellularNic.nrRlc.um rlcDelayD2D:mean -nan
scalar SingleCell_Standalone.ue[0].cellularNic.nrRlc.um rlcCellThroughputUl:simu5g_rateavg -nan
scalar SingleCell_Standalone.ue[0].cellularNic.nrRlc.um rlcCellThroughputDl:simu5g_rateavg -nan
scalar SingleCell_Standalone.ue[0].cellularNic.nrRlc.um rlcPduThroughputUl:simu5g_rateavg -nan
scalar SingleCell_Standalone.ue[0].cellularNic.nrRlc.um rlcPduThroughputDl:simu5g_rateavg 0
scalar SingleCell_Standalone.ue[0].cellularNic.nrRlc.um rlcPduDelayUl:mean -nan
scalar SingleCell_Standalone.ue[0].cellularNic.nrRlc.um rlcPduDelayDl:mean 0.0041266666666666674
scalar SingleCell_Standalone.ue[0].cellularNic.nrRlc.um rlcThroughputUl:simu5g_rateavg -nan
scalar SingleCell_Standalone.ue[0].cellularNic.nrRlc.um rlcThroughputDl:simu5g_rateavg 106898.60484925057
scalar SingleCell_Standalone.ue[0].cellularNic.nrRlc.um rlcDelayUl:mean -nan
scalar SingleCell_Standalone.ue[0].cellularNic.nrRlc.um rlcDelayDl:mean 0.0046654300966666035
scalar SingleCell_Standalone.ue[0].cellularNic.nrRlc.um sentPacketToLowerLayer:count 0
scalar SingleCell_Standalone.ue[0].cellularNic.nrRlc.um sentPacketToLowerLayer:sum(packetBytes) 0
scalar SingleCell_Standalone.ue[0].cellularNic.nrRlc.um sentPacketToUpperLayer:count 900
scalar SingleCell_Standalone.ue[0].cellularNic.nrRlc.um sentPacketToUpperLayer:sum(packetBytes) 62100
scalar SingleCell_Standalone.ue[0].cellularNic.nrRlc.um receivedPacketFromLowerLayer:count 900
scalar SingleCell_Standalone.ue[0].cellularNic.nrRlc.um receivedPacketFromLowerLayer:sum(packetBytes) 63900
scalar SingleCell_Standalone.ue[0].cellularNic.nrRlc.um receivedPacketFromUpperLayer:count 0
scalar SingleCell_Standalone.ue[0].cellularNic.nrRlc.um receivedPacketFromUpperLayer:sum(packetBytes) 0
scalar SingleCell_Standalone.ue[0].cellularNic.nrRlc.am rlcPacketLossTotal:mean -nan
scalar SingleCell_Standalone.ue[0].cellularNic.nrRlc.am rlcCellThroughputUl:simu5g_rateavg -nan
scalar SingleCell_Standalone.ue[0].cellularNic.nrRlc.am rlcCellThroughputDl:simu5g_rateavg -nan
scalar SingleCell_Standalone.ue[0].cellularNic.nrRlc.am rlcPduThroughputUl:simu5g_rateavg -nan
scalar SingleCell_Standalone.ue[0].cellularNic.nrRlc.am rlcPduThroughputDl:simu5g_rateavg -nan
scalar SingleCell_Standalone.ue[0].cellularNic.nrRlc.am rlcPduDelayUl:mean -nan
scalar SingleCell_Standalone.ue[0].cellularNic.nrRlc.am rlcPduDelayDl:mean -nan
scalar SingleCell_Standalone.ue[0].cellularNic.nrRlc.am rlcThroughputUl:simu5g_rateavg -nan
scalar SingleCell_Standalone.ue[0].cellularNic.nrRlc.am rlcThroughputDl:simu5g_rateavg -nan
scalar SingleCell_Standalone.ue[0].cellularNic.nrRlc.am rlcDelayUl:mean -nan
scalar SingleCell_Standalone.ue[0].cellularNic.nrRlc.am rlcDelayDl:mean -nan
scalar SingleCell_Standalone.ue[0].cellularNic.nrRlc.am rlcPduPacketLossUl:mean -nan
scalar SingleCell_Standalone.ue[0].cellularNic.nrRlc.am rlcPduPacketLossDl:mean -nan
scalar SingleCell_Standalone.ue[0].cellularNic.nrRlc.am rlcPacketLossUl:mean -nan
scalar SingleCell_Standalone.ue[0].cellularNic.nrRlc.am rlcPacketLossDl:mean -nan
scalar SingleCell_Standalone.ue[0].cellularNic.nrRlc.am rlcCellPacketLossUl:mean -nan
scalar SingleCell_Standalone.ue[0].cellularNic.nrRlc.am rlcCellPacketLossDl:mean -nan
scalar SingleCell_Standalone.ue[0].cellularNic.nrMac harqErrorRate_4th_D2D:mean -nan
scalar SingleCell_Standalone.ue[0].cellularNic.nrMac harqErrorRate_3rd_D2D:mean -nan
scalar SingleCell_Standalone.ue[0].cellularNic.nrMac harqErrorRate_2nd_D2D:mean -nan
scalar SingleCell_Standalone.ue[0].cellularNic.nrMac harqErrorRate_1st_D2D:mean -nan
scalar SingleCell_Standalone.ue[0].cellularNic.nrMac harqErrorRateD2D:mean -nan
scalar SingleCell_Standalone.ue[0].cellularNic.nrMac macPacketLossD2D:mean -nan
scalar SingleCell_Standalone.ue[0].cellularNic.nrMac macDelayD2D:mean -nan
scalar SingleCell_Standalone.ue[0].cellularNic.nrMac macThroughputD2D:simu5g_rateavg -nan
scalar SingleCell_Standalone.ue[0].cellularNic.nrMac harqTxAttemptsUl:mean -nan
scalar SingleCell_Standalone.ue[0].cellularNic.nrMac harqTxAttemptsDl:mean 1.0211111111111111
scalar SingleCell_Standalone.ue[0].cellularNic.nrMac harqErrorRate_4th_Ul:mean -nan
scalar SingleCell_Standalone.ue[0].cellularNic.nrMac harqErrorRate_4th_Dl:mean -nan
scalar SingleCell_Standalone.ue[0].cellularNic.nrMac harqErrorRate_3rd_Ul:mean -nan
scalar SingleCell_Standalone.ue[0].cellularNic.nrMac harqErrorRate_3rd_Dl:mean -nan
scalar SingleCell_Standalone.ue[0].cellularNic.nrMac harqErrorRate_2nd_Ul:mean -nan
scalar SingleCell_Standalone.ue[0].cellularNic.nrMac harqErrorRate_2nd_Dl:mean 0
scalar SingleCell_Standalone.ue[0].cellularNic.nrMac harqErrorRate_1st_Ul:mean -nan
scalar SingleCell_Standalone.ue[0].cellularNic.nrMac harqErrorRate_1st_Dl:mean 0.021111111111111112
scalar SingleCell_Standalone.ue[0].cellularNic.nrMac harqErrorRateUl:mean -nan
scalar SingleCell_Standalone.ue[0].cellularNic.nrMac harqErrorRateDl:mean 0.020674646354733407
scalar SingleCell_Standalone.ue[0].cellularNic.nrMac macCellPacketLossUl:mean -nan
scalar SingleCell_Standalone.ue[0].cellularNic.nrMac macCellPacketLossDl:mean -nan
scalar SingleCell_Standalone.ue[0].cellularNic.nrMac macPacketLossUl:mean -nan
scalar SingleCell_Standalone.ue[0].cellularNic.nrMac macPacketLossDl:mean 0
scalar SingleCell_Standalone.ue[0].cellularNic.nrMac macThroughputUl:simu5g_rateavg -nan
scalar SingleCell_Standalone.ue[0].cellularNic.nrMac macThroughputDl:simu5g_rateavg 113095.62542022165
scalar SingleCell_Standalone.ue[0].cellularNic.nrMac macDelayUl:mean -nan
scalar SingleCell_Standalone.ue[0].cellularNic.nrMac macDelayDl:mean 0.0041266666666666674
scalar SingleCell_Standalone.ue[0].cellularNic.nrMac macCellThroughputUl:simu5g_rateavg -nan
scalar SingleCell_Standalone.ue[0].cellularNic.nrMac macCellThroughputDl:simu5g_rateavg -nan
scalar SingleCell_Standalone.ue[0].cellularNic.nrMac rcvdD2DModeSwitchNotification:count 0
scalar SingleCell_Standalone.ue[0].cellularNic.nrMac sentPacketToLowerLayer:count 919
scalar SingleCell_Standalone.ue[0].cellularNic.nrMac sentPacketToLowerLayer:sum(packetBytes) 919
scalar SingleCell_Standalone.ue[0].cellularNic.nrMac sentPacketToUpperLayer:count 900
scalar SingleCell_Standalone.ue[0].cellularNic.nrMac sentPacketToUpperLayer:sum(packetBytes) 63900
scalar SingleCell_Standalone.ue[0].cellularNic.nrMac receivedPacketFromLowerLayer:count 919
scalar SingleCell_Standalone.ue[0].cellularNic.nrMac receivedPacketFromLowerLayer:sum(packetBytes) 67087
scalar SingleCell_Standalone.ue[0].cellularNic.nrMac receivedPacketFromUpperLayer:count 0
scalar SingleCell_Standalone.ue[0].cellularNic.nrMac receivedPacketFromUpperLayer:sum(packetBytes) 0
scalar SingleCell_Standalone.ue[0].cellularNic.nrMac macBufferOverFlowD2D:mean -nan
scalar SingleCell_Standalone.ue[0].cellularNic.nrMac macBufferOverFlowUl:mean -nan
scalar SingleCell_Standalone.ue[0].cellularNic.nrMac macBufferOverFlowDl:mean -nan
scalar SingleCell_Standalone.ue[0].cellularNic.nrPhy distance:mean -nan
scalar SingleCell_Standalone.ue[0].cellularNic.nrPhy averageCqiD2D:mean -nan
scalar SingleCell_Standalone.ue[0].cellularNic.nrPhy averageCqiUl:mean -nan
scalar SingleCell_Standalone.ue[0].cellularNic.nrPhy averageCqiUl:count 0
scalar SingleCell_Standalone.ue[0].cellularNic.nrPhy averageCqiDl:mean 14
scalar SingleCell_Standalone.ue[0].cellularNic.nrPhy averageCqiDl:count 919
scalar SingleCell_Standalone.ue[0].cellularNic.nrChannelModel[0] measuredSinrUl:mean 20.729521822569939
scalar SingleCell_Standalone.ue[0].cellularNic.nrChannelModel[0] measuredSinrDl:mean 38.537381856055219
scalar SingleCell_Standalone.ue[0].cellularNic.nrChannelModel[0] rcvdSinrD2D:mean -nan
scalar SingleCell_Standalone.ue[0].cellularNic.nrChannelModel[0] rcvdSinrUl:mean -nan
scalar SingleCell_Standalone.ue[0].cellularNic.nrChannelModel[0] rcvdSinrDl:mean 26.732024966474459
scalar SingleCell_Standalone.ue[0].cellularNic packetDropInterfaceDown:count 0
scalar SingleCell_Standalone.ue[0].cellularNic packetDropInterfaceDown:sum(packetBytes) 0
scalar SingleCell_Standalone.ue[0].cellularNic packetDropNoCarrier:count 0
scalar SingleCell_Standalone.ue[0].cellularNic packetDropNoCarrier:sum(packetBytes) 0
scalar SingleCell_Standalone.ue[0].encap pauseSent:count 0
scalar SingleCell_Standalone.ue[0].encap pauseSent:sum 0
scalar SingleCell_Standalone.ue[0].encap decapPk:count 0
scalar SingleCell_Standalone.ue[0].encap decapPk:sum(packetBytes) 0
scalar SingleCell_Standalone.ue[0].encap encapPk:count 0
scalar SingleCell_Standalone.ue[0].encap encapPk:sum(packetBytes) 0
scalar SingleCell_Standalone.ue[0].ipv4.ip packetDropAddressResolutionFailed:count 0
scalar SingleCell_Standalone.ue[0].ipv4.ip packetDropAddressResolutionFailed:sum(packetBytes) 0
scalar SingleCell_Standalone.ue[0].ipv4.ip packetDropHopLimitReached:count 0
scalar SingleCell_Standalone.ue[0].ipv4.ip packetDropHopLimitReached:sum(packetBytes) 0
scalar SingleCell_Standalone.ue[0].ipv4.ip packetDropForwardingDisabled:count 0
scalar SingleCell_Standalone.ue[0].ipv4.ip packetDropForwardingDisabled:sum(packetBytes) 0
scalar SingleCell_Standalone.ue[0].ipv4.ip packetDropNoInterfaceFound:count 0
scalar SingleCell_Standalone.ue[0].ipv4.ip packetDropNoInterfaceFound:sum(packetBytes) 0
scalar SingleCell_Standalone.ue[0].ipv4.ip packetDropNoRouteFound:count 0
scalar SingleCell_Standalone.ue[0].ipv4.ip packetDropNoRouteFound:sum(packetBytes) 0
scalar SingleCell_Standalone.ue[0].ipv4.ip packetDropUndefined:count 0
scalar SingleCell_Standalone.ue[0].ipv4.ip packetDropUndefined:sum(packetBytes) 0
scalar SingleCell_Standalone.ue[0].ipv4.arp arpResolutionFailed:count 0
scalar SingleCell_Standalone.ue[0].ipv4.arp arpResolutionCompleted:count 0
[...]
scalar SingleCell_Standalone.ue[0].cellularNic.nrChannelModel[0] rcvdSinrD2D:vector:sum 0
scalar SingleCell_Standalone.ue[0].cellularNic.nrChannelModel[0] rcvdSinrD2D:vector:sumweights 0
scalar SingleCell_Standalone.ue[0].cellularNic.nrChannelModel[0] rcvdSinrD2D:vector:mean -nan
scalar SingleCell_Standalone.ue[0].cellularNic.nrChannelModel[0] rcvdSinrD2D:vector:stddev nan
scalar SingleCell_Standalone.ue[0].cellularNic.nrChannelModel[0] rcvdSinrD2D:vector:min inf
scalar SingleCell_Standalone.ue[0].cellularNic.nrChannelModel[0] rcvdSinrD2D:vector:max -inf
scalar SingleCell_Standalone.ue[0].cellularNic.nrChannelModel[0] rcvdSinrD2D:vector:starttime nan
scalar SingleCell_Standalone.ue[0].cellularNic.nrChannelModel[0] rcvdSinrD2D:vector:endtime nan
scalar SingleCell_Standalone.ue[0].cellularNic.nrChannelModel[0] measuredSinrDl:vector:count 1500
scalar SingleCell_Standalone.ue[0].cellularNic.nrChannelModel[0] measuredSinrDl:vector:sum 57806.072784082833
scalar SingleCell_Standalone.ue[0].cellularNic.nrChannelModel[0] measuredSinrDl:vector:sumweights 1500
scalar SingleCell_Standalone.ue[0].cellularNic.nrChannelModel[0] measuredSinrDl:vector:mean 38.537381856055219
scalar SingleCell_Standalone.ue[0].cellularNic.nrChannelModel[0] measuredSinrDl:vector:stddev 0
scalar SingleCell_Standalone.ue[0].cellularNic.nrChannelModel[0] measuredSinrDl:vector:min 38.53738185605642
scalar SingleCell_Standalone.ue[0].cellularNic.nrChannelModel[0] measuredSinrDl:vector:max 38.53738185605642
scalar SingleCell_Standalone.ue[0].cellularNic.nrChannelModel[0] measuredSinrDl:vector:starttime 1.004
scalar SingleCell_Standalone.ue[0].cellularNic.nrChannelModel[0] measuredSinrDl:vector:endtime 9.9979999999999993
scalar SingleCell_Standalone.ue[0].cellularNic.nrChannelModel[0] measuredSinrUl:vector:count 1500
scalar SingleCell_Standalone.ue[0].cellularNic.nrChannelModel[0] measuredSinrUl:vector:sum 31094.282733854907
scalar SingleCell_Standalone.ue[0].cellularNic.nrChannelModel[0] measuredSinrUl:vector:sumweights 1500
scalar SingleCell_Standalone.ue[0].cellularNic.nrChannelModel[0] measuredSinrUl:vector:mean 20.729521822569939
scalar SingleCell_Standalone.ue[0].cellularNic.nrChannelModel[0] measuredSinrUl:vector:stddev 0
scalar SingleCell_Standalone.ue[0].cellularNic.nrChannelModel[0] measuredSinrUl:vector:min 20.729521822569811
scalar SingleCell_Standalone.ue[0].cellularNic.nrChannelModel[0] measuredSinrUl:vector:max 20.729521822569811
scalar SingleCell_Standalone.ue[0].cellularNic.nrChannelModel[0] measuredSinrUl:vector:starttime 1.004
scalar SingleCell_Standalone.ue[0].cellularNic.nrChannelModel[0] measuredSinrUl:vector:endtime 9.9979999999999993
scalar SingleCell_Standalone.ue[0].cellularNic packetDropInterfaceDown:vector(packetBytes):count 0
scalar SingleCell_Standalone.ue[0].cellularNic packetDropInterfaceDown:vector(packetBytes):sum 0
scalar SingleCell_Standalone.ue[0].cellularNic packetDropInterfaceDown:vector(packetBytes):sumweights 0
scalar SingleCell_Standalone.ue[0].cellularNic packetDropInterfaceDown:vector(packetBytes):mean -nan
scalar SingleCell_Standalone.ue[0].cellularNic packetDropInterfaceDown:vector(packetBytes):stddev nan
scalar SingleCell_Standalone.ue[0].cellularNic packetDropInterfaceDown:vector(packetBytes):min inf
scalar SingleCell_Standalone.ue[0].cellularNic packetDropInterfaceDown:vector(packetBytes):max -inf
scalar SingleCell_Standalone.ue[0].cellularNic packetDropInterfaceDown:vector(packetBytes):starttime nan
scalar SingleCell_Standalone.ue[0].cellularNic packetDropInterfaceDown:vector(packetBytes):endtime nan
scalar SingleCell_Standalone.ue[0].cellularNic packetDropNoCarrier:vector(packetBytes):count 0
scalar SingleCell_Standalone.ue[0].cellularNic packetDropNoCarrier:vector(packetBytes):sum 0
scalar SingleCell_Standalone.ue[0].cellularNic packetDropNoCarrier:vector(packetBytes):sumweights 0
scalar SingleCell_Standalone.ue[0].cellularNic packetDropNoCarrier:vector(packetBytes):mean -nan
scalar SingleCell_Standalone.ue[0].cellularNic packetDropNoCarrier:vector(packetBytes):stddev nan
scalar SingleCell_Standalone.ue[0].cellularNic packetDropNoCarrier:vector(packetBytes):min inf
scalar SingleCell_Standalone.ue[0].cellularNic packetDropNoCarrier:vector(packetBytes):max -inf
scalar SingleCell_Standalone.ue[0].cellularNic packetDropNoCarrier:vector(packetBytes):starttime nan
scalar SingleCell_Standalone.ue[0].cellularNic packetDropNoCarrier:vector(packetBytes):endtime nan
scalar SingleCell_Standalone.ue[0].encap encapPk:vector(packetBytes):count 0
scalar SingleCell_Standalone.ue[0].encap encapPk:vector(packetBytes):sum 0
scalar SingleCell_Standalone.ue[0].encap encapPk:vector(packetBytes):sumweights 0
scalar SingleCell_Standalone.ue[0].encap encapPk:vector(packetBytes):mean -nan
scalar SingleCell_Standalone.ue[0].encap encapPk:vector(packetBytes):stddev nan
scalar SingleCell_Standalone.ue[0].encap encapPk:vector(packetBytes):min inf
scalar SingleCell_Standalone.ue[0].encap encapPk:vector(packetBytes):max -inf
scalar SingleCell_Standalone.ue[0].encap encapPk:vector(packetBytes):starttime nan
scalar SingleCell_Standalone.ue[0].encap encapPk:vector(packetBytes):endtime nan
scalar SingleCell_Standalone.ue[0].encap decapPk:vector(packetBytes):count 0
scalar SingleCell_Standalone.ue[0].encap decapPk:vector(packetBytes):sum 0
scalar SingleCell_Standalone.ue[0].encap decapPk:vector(packetBytes):sumweights 0
scalar SingleCell_Standalone.ue[0].encap decapPk:vector(packetBytes):mean -nan
scalar SingleCell_Standalone.ue[0].encap decapPk:vector(packetBytes):stddev nan
scalar SingleCell_Standalone.ue[0].encap decapPk:vector(packetBytes):min inf
scalar SingleCell_Standalone.ue[0].encap decapPk:vector(packetBytes):max -inf
scalar SingleCell_Standalone.ue[0].encap decapPk:vector(packetBytes):starttime nan
scalar SingleCell_Standalone.ue[0].encap decapPk:vector(packetBytes):endtime nan
scalar SingleCell_Standalone.ue[0].encap pauseSent:vector:count 0
scalar SingleCell_Standalone.ue[0].encap pauseSent:vector:sum 0
scalar SingleCell_Standalone.ue[0].encap pauseSent:vector:sumweights 0
scalar SingleCell_Standalone.ue[0].encap pauseSent:vector:mean -nan
scalar SingleCell_Standalone.ue[0].encap pauseSent:vector:stddev nan
scalar SingleCell_Standalone.ue[0].encap pauseSent:vector:min inf
scalar SingleCell_Standalone.ue[0].encap pauseSent:vector:max -inf
scalar SingleCell_Standalone.ue[0].encap pauseSent:vector:starttime nan
scalar SingleCell_Standalone.ue[0].encap pauseSent:vector:endtime nan
scalar SingleCell_Standalone.ue[0].ipv4.ip packetDropAddressResolutionFailed:vector(packetBytes):count 0
scalar SingleCell_Standalone.ue[0].ipv4.ip packetDropAddressResolutionFailed:vector(packetBytes):sum 0
scalar SingleCell_Standalone.ue[0].ipv4.ip packetDropAddressResolutionFailed:vector(packetBytes):sumweights 0
scalar SingleCell_Standalone.ue[0].ipv4.ip packetDropAddressResolutionFailed:vector(packetBytes):mean -nan
scalar SingleCell_Standalone.ue[0].ipv4.ip packetDropAddressResolutionFailed:vector(packetBytes):stddev nan
scalar SingleCell_Standalone.ue[0].ipv4.ip packetDropAddressResolutionFailed:vector(packetBytes):min inf
scalar SingleCell_Standalone.ue[0].ipv4.ip packetDropAddressResolutionFailed:vector(packetBytes):max -inf
scalar SingleCell_Standalone.ue[0].ipv4.ip packetDropAddressResolutionFailed:vector(packetBytes):starttime nan
scalar SingleCell_Standalone.ue[0].ipv4.ip packetDropAddressResolutionFailed:vector(packetBytes):endtime nan
scalar SingleCell_Standalone.ue[0].ipv4.ip packetDropHopLimitReached:vector(packetBytes):count 0
scalar SingleCell_Standalone.ue[0].ipv4.ip packetDropHopLimitReached:vector(packetBytes):sum 0
scalar SingleCell_Standalone.ue[0].ipv4.ip packetDropHopLimitReached:vector(packetBytes):sumweights 0
scalar SingleCell_Standalone.ue[0].ipv4.ip packetDropHopLimitReached:vector(packetBytes):mean -nan
scalar SingleCell_Standalone.ue[0].ipv4.ip packetDropHopLimitReached:vector(packetBytes):stddev nan
scalar SingleCell_Standalone.ue[0].ipv4.ip packetDropHopLimitReached:vector(packetBytes):min inf
scalar SingleCell_Standalone.ue[0].ipv4.ip packetDropHopLimitReached:vector(packetBytes):max -inf
scalar SingleCell_Standalone.ue[0].ipv4.ip packetDropHopLimitReached:vector(packetBytes):starttime nan
scalar SingleCell_Standalone.ue[0].ipv4.ip packetDropHopLimitReached:vector(packetBytes):endtime nan
scalar SingleCell_Standalone.ue[0].ipv4.ip packetDropForwardingDisabled:vector(packetBytes):count 0
scalar SingleCell_Standalone.ue[0].ipv4.ip packetDropForwardingDisabled:vector(packetBytes):sum 0
scalar SingleCell_Standalone.ue[0].ipv4.ip packetDropForwardingDisabled:vector(packetBytes):sumweights 0
scalar SingleCell_Standalone.ue[0].ipv4.ip packetDropForwardingDisabled:vector(packetBytes):mean -nan
scalar SingleCell_Standalone.ue[0].ipv4.ip packetDropForwardingDisabled:vector(packetBytes):stddev nan
scalar SingleCell_Standalone.ue[0].ipv4.ip packetDropForwardingDisabled:vector(packetBytes):min inf
scalar SingleCell_Standalone.ue[0].ipv4.ip packetDropForwardingDisabled:vector(packetBytes):max -inf
scalar SingleCell_Standalone.ue[0].ipv4.ip packetDropForwardingDisabled:vector(packetBytes):starttime nan
scalar SingleCell_Standalone.ue[0].ipv4.ip packetDropForwardingDisabled:vector(packetBytes):endtime nan
scalar SingleCell_Standalone.ue[0].ipv4.ip packetDropNoInterfaceFound:vector(packetBytes):count 0
scalar SingleCell_Standalone.ue[0].ipv4.ip packetDropNoInterfaceFound:vector(packetBytes):sum 0
scalar SingleCell_Standalone.ue[0].ipv4.ip packetDropNoInterfaceFound:vector(packetBytes):sumweights 0
scalar SingleCell_Standalone.ue[0].ipv4.ip packetDropNoInterfaceFound:vector(packetBytes):mean -nan
scalar SingleCell_Standalone.ue[0].ipv4.ip packetDropNoInterfaceFound:vector(packetBytes):stddev nan
scalar SingleCell_Standalone.ue[0].ipv4.ip packetDropNoInterfaceFound:vector(packetBytes):min inf
scalar SingleCell_Standalone.ue[0].ipv4.ip packetDropNoInterfaceFound:vector(packetBytes):max -inf
scalar SingleCell_Standalone.ue[0].ipv4.ip packetDropNoInterfaceFound:vector(packetBytes):starttime nan
scalar SingleCell_Standalone.ue[0].ipv4.ip packetDropNoInterfaceFound:vector(packetBytes):endtime nan
scalar SingleCell_Standalone.ue[0].ipv4.ip packetDropNoRouteFound:vector(packetBytes):count 0
scalar SingleCell_Standalone.ue[0].ipv4.ip packetDropNoRouteFound:vector(packetBytes):sum 0
scalar SingleCell_Standalone.ue[0].ipv4.ip packetDropNoRouteFound:vector(packetBytes):sumweights 0
scalar SingleCell_Standalone.ue[0].ipv4.ip packetDropNoRouteFound:vector(packetBytes):mean -nan
scalar SingleCell_Standalone.ue[0].ipv4.ip packetDropNoRouteFound:vector(packetBytes):stddev nan
scalar SingleCell_Standalone.ue[0].ipv4.ip packetDropNoRouteFound:vector(packetBytes):min inf
scalar SingleCell_Standalone.ue[0].ipv4.ip packetDropNoRouteFound:vector(packetBytes):max -inf
scalar SingleCell_Standalone.ue[0].ipv4.ip packetDropNoRouteFound:vector(packetBytes):starttime nan
scalar SingleCell_Standalone.ue[0].ipv4.ip packetDropNoRouteFound:vector(packetBytes):endtime nan
scalar SingleCell_Standalone.ue[0].ipv4.ip packetDropUndefined:vector(packetBytes):count 0
scalar SingleCell_Standalone.ue[0].ipv4.ip packetDropUndefined:vector(packetBytes):sum 0
scalar SingleCell_Standalone.ue[0].ipv4.ip packetDropUndefined:vector(packetBytes):sumweights 0
scalar SingleCell_Standalone.ue[0].ipv4.ip packetDropUndefined:vector(packetBytes):mean -nan
scalar SingleCell_Standalone.ue[0].ipv4.ip packetDropUndefined:vector(packetBytes):stddev nan
scalar SingleCell_Standalone.ue[0].ipv4.ip packetDropUndefined:vector(packetBytes):min inf
scalar SingleCell_Standalone.ue[0].ipv4.ip packetDropUndefined:vector(packetBytes):max -inf
scalar SingleCell_Standalone.ue[0].ipv4.ip packetDropUndefined:vector(packetBytes):starttime nan
scalar SingleCell_Standalone.ue[0].ipv4.ip packetDropUndefined:vector(packetBytes):endtime nan
scalar SingleCell_Standalone.ue[0].ipv4.arp arpRequestSent:vector(packetBytes):count 0
scalar SingleCell_Standalone.ue[0].ipv4.arp arpRequestSent:vector(packetBytes):sum 0
scalar SingleCell_Standalone.ue[0].ipv4.arp arpRequestSent:vector(packetBytes):sumweights 0
scalar SingleCell_Standalone.ue[0].ipv4.arp arpRequestSent:vector(packetBytes):mean -nan
scalar SingleCell_Standalone.ue[0].ipv4.arp arpRequestSent:vector(packetBytes):stddev nan
scalar SingleCell_Standalone.ue[0].ipv4.arp arpRequestSent:vector(packetBytes):min inf
scalar SingleCell_Standalone.ue[0].ipv4.arp arpRequestSent:vector(packetBytes):max -inf
scalar SingleCell_Standalone.ue[0].ipv4.arp arpRequestSent:vector(packetBytes):starttime nan
scalar SingleCell_Standalone.ue[0].ipv4.arp arpRequestSent:vector(packetBytes):endtime nan
scalar SingleCell_Standalone.ue[0].ipv4.arp arpReplySent:vector(packetBytes):count 0
scalar SingleCell_Standalone.ue[0].ipv4.arp arpReplySent:vector(packetBytes):sum 0
scalar SingleCell_Standalone.ue[0].ipv4.arp arpReplySent:vector(packetBytes):sumweights 0
scalar SingleCell_Standalone.ue[0].ipv4.arp arpReplySent:vector(packetBytes):mean -nan
scalar SingleCell_Standalone.ue[0].ipv4.arp arpReplySent:vector(packetBytes):stddev nan
scalar SingleCell_Standalone.ue[0].ipv4.arp arpReplySent:vector(packetBytes):min inf
scalar SingleCell_Standalone.ue[0].ipv4.arp arpReplySent:vector(packetBytes):max -inf
scalar SingleCell_Standalone.ue[0].ipv4.arp arpReplySent:vector(packetBytes):starttime nan
scalar SingleCell_Standalone.ue[0].ipv4.arp arpReplySent:vector(packetBytes):endtime nan
scalar SingleCell_Standalone.ue[0].udp packetSent:vector(packetBytes):count 0
scalar SingleCell_Standalone.ue[0].udp packetSent:vector(packetBytes):sum 0
scalar SingleCell_Standalone.ue[0].udp packetSent:vector(packetBytes):sumweights 0
scalar SingleCell_Standalone.ue[0].udp packetSent:vector(packetBytes):mean -nan
scalar SingleCell_Standalone.ue[0].udp packetSent:vector(packetBytes):stddev nan
scalar SingleCell_Standalone.ue[0].udp packetSent:vector(packetBytes):min inf
scalar SingleCell_Standalone.ue[0].udp packetSent:vector(packetBytes):max -inf
scalar SingleCell_Standalone.ue[0].udp packetSent:vector(packetBytes):starttime nan
scalar SingleCell_Standalone.ue[0].udp packetSent:vector(packetBytes):endtime nan
scalar SingleCell_Standalone.ue[0].udp packetReceived:vector(packetBytes):count 900
scalar SingleCell_Standalone.ue[0].udp packetReceived:vector(packetBytes):sum 43200
scalar SingleCell_Standalone.ue[0].udp packetReceived:vector(packetBytes):sumweights 900
scalar SingleCell_Standalone.ue[0].udp packetReceived:vector(packetBytes):mean 48
scalar SingleCell_Standalone.ue[0].udp packetReceived:vector(packetBytes):stddev 0
scalar SingleCell_Standalone.ue[0].udp packetReceived:vector(packetBytes):min 48
scalar SingleCell_Standalone.ue[0].udp packetReceived:vector(packetBytes):max 48
scalar SingleCell_Standalone.ue[0].udp packetReceived:vector(packetBytes):starttime 1.0070000000000001
scalar SingleCell_Standalone.ue[0].udp packetReceived:vector(packetBytes):endtime 9.9969999999999999
scalar SingleCell_Standalone.ue[0].udp passedUpPk:vector(count):count 901
scalar SingleCell_Standalone.ue[0].udp passedUpPk:vector(count):sum 405450
scalar SingleCell_Standalone.ue[0].udp passedUpPk:vector(count):sumweights 901
scalar SingleCell_Standalone.ue[0].udp passedUpPk:vector(count):mean 450
scalar SingleCell_Standalone.ue[0].udp passedUpPk:vector(count):stddev 260.24059381016383
scalar SingleCell_Standalone.ue[0].udp passedUpPk:vector(count):min 0
scalar SingleCell_Standalone.ue[0].udp passedUpPk:vector(count):max 900
scalar SingleCell_Standalone.ue[0].udp passedUpPk:vector(count):starttime 1
scalar SingleCell_Standalone.ue[0].udp passedUpPk:vector(count):endtime 9.9969999999999999
scalar SingleCell_Standalone.ue[0].udp droppedPkWrongPort:vector(count):count 1
scalar SingleCell_Standalone.ue[0].udp droppedPkWrongPort:vector(count):sum 0
scalar SingleCell_Standalone.ue[0].udp droppedPkWrongPort:vector(count):sumweights 1
scalar SingleCell_Standalone.ue[0].udp droppedPkWrongPort:vector(count):mean 0
scalar SingleCell_Standalone.ue[0].udp droppedPkWrongPort:vector(count):stddev nan
scalar SingleCell_Standalone.ue[0].udp droppedPkWrongPort:vector(count):min 0
scalar SingleCell_Standalone.ue[0].udp droppedPkWrongPort:vector(count):max 0
scalar SingleCell_Standalone.ue[0].udp droppedPkWrongPort:vector(count):starttime 1
scalar SingleCell_Standalone.ue[0].udp droppedPkWrongPort:vector(count):endtime 1
scalar SingleCell_Standalone.ue[0].udp droppedPkBadChecksum:vector(count):count 1
scalar SingleCell_Standalone.ue[0].udp droppedPkBadChecksum:vector(count):sum 0
scalar SingleCell_Standalone.ue[0].udp droppedPkBadChecksum:vector(count):sumweights 1
scalar SingleCell_Standalone.ue[0].udp droppedPkBadChecksum:vector(count):mean 0
scalar SingleCell_Standalone.ue[0].udp droppedPkBadChecksum:vector(count):stddev nan
scalar SingleCell_Standalone.ue[0].udp droppedPkBadChecksum:vector(count):min 0
scalar SingleCell_Standalone.ue[0].udp droppedPkBadChecksum:vector(count):max 0
scalar SingleCell_Standalone.ue[0].udp droppedPkBadChecksum:vector(count):starttime 1
scalar SingleCell_Standalone.ue[0].udp droppedPkBadChecksum:vector(count):endtime 1
scalar SingleCell_Standalone.ue[0].app[0] cbrFrameDelay:vector:count 900
scalar SingleCell_Standalone.ue[0].app[0] cbrFrameDelay:vector:sum 4.1993349270000238
scalar SingleCell_Standalone.ue[0].app[0] cbrFrameDelay:vector:sumweights 900
scalar SingleCell_Standalone.ue[0].app[0] cbrFrameDelay:vector:mean 0.0046659276966666934
scalar SingleCell_Standalone.ue[0].app[0] cbrFrameDelay:vector:stddev 0.00086300816469188466
scalar SingleCell_Standalone.ue[0].app[0] cbrFrameDelay:vector:min 0.00453926103
scalar SingleCell_Standalone.ue[0].app[0] cbrFrameDelay:vector:max 0.01053926103
scalar SingleCell_Standalone.ue[0].app[0] cbrFrameDelay:vector:starttime 1.0070000000000001
scalar SingleCell_Standalone.ue[0].app[0] cbrFrameDelay:vector:endtime 9.9969999999999999
scalar SingleCell_Standalone.ue[0].app[0] cbrJitter:vector:count 0
scalar SingleCell_Standalone.ue[0].app[0] cbrJitter:vector:sum 0
scalar SingleCell_Standalone.ue[0].app[0] cbrJitter:vector:sumweights 0
scalar SingleCell_Standalone.ue[0].app[0] cbrJitter:vector:mean -nan
scalar SingleCell_Standalone.ue[0].app[0] cbrJitter:vector:stddev nan
scalar SingleCell_Standalone.ue[0].app[0] cbrJitter:vector:min inf
scalar SingleCell_Standalone.ue[0].app[0] cbrJitter:vector:max -inf
scalar SingleCell_Standalone.ue[0].app[0] cbrJitter:vector:starttime nan
scalar SingleCell_Standalone.ue[0].app[0] cbrJitter:vector:endtime nan
scalar SingleCell_Standalone.ue[0].app[0] cbrReceivedBytes:vector:count 900
scalar SingleCell_Standalone.ue[0].app[0] cbrReceivedBytes:vector:sum 36000
scalar SingleCell_Standalone.ue[0].app[0] cbrReceivedBytes:vector:sumweights 900
scalar SingleCell_Standalone.ue[0].app[0] cbrReceivedBytes:vector:mean 40
scalar SingleCell_Standalone.ue[0].app[0] cbrReceivedBytes:vector:stddev 0
scalar SingleCell_Standalone.ue[0].app[0] cbrReceivedBytes:vector:min 40
scalar SingleCell_Standalone.ue[0].app[0] cbrReceivedBytes:vector:max 40
scalar SingleCell_Standalone.ue[0].app[0] cbrReceivedBytes:vector:starttime 1.0070000000000001
scalar SingleCell_Standalone.ue[0].app[0] cbrReceivedBytes:vector:endtime 9.9969999999999999
scalar SingleCell_Standalone.ue[0].app[0] cbrRcvdPkt:vector:count 900
scalar SingleCell_Standalone.ue[0].app[0] cbrRcvdPkt:vector:sum 490950
scalar SingleCell_Standalone.ue[0].app[0] cbrRcvdPkt:vector:sumweights 900
scalar SingleCell_Standalone.ue[0].app[0] cbrRcvdPkt:vector:mean 545.5
scalar SingleCell_Standalone.ue[0].app[0] cbrRcvdPkt:vector:stddev 259.95191863111916
scalar SingleCell_Standalone.ue[0].app[0] cbrRcvdPkt:vector:min 96
scalar SingleCell_Standalone.ue[0].app[0] cbrRcvdPkt:vector:max 995
scalar SingleCell_Standalone.ue[0].app[0] cbrRcvdPkt:vector:starttime 1.0070000000000001
scalar SingleCell_Standalone.ue[0].app[0] cbrRcvdPkt:vector:endtime 9.9969999999999999

