version 3
run SingleCell-CBR-DL-0-20260712-21:02:15-254220
attr configname SingleCell-CBR-DL
attr datetime 20260712-21:02:15
attr datetimef 20260712-210215
attr experiment SingleCell-CBR-DL
attr inifile omnetpp.ini
attr iterationvars "$u=0, $numUe=10, $numUeApps=2"
attr iterationvarsd u=0/numUe=10/numUeApps=2
attr iterationvarsf u=0,numUe=10,numUeApps=2-
attr measurement "$u=0, $numUe=10, $numUeApps=2"
attr network simu5g.simulations.nr.networks.SingleCell_withSecondaryGnb
attr processid 254220
attr repetition 0
attr replication #0
attr resultdir results
attr runnumber 0
attr seedset 0
itervar numUe 10
itervar numUeApps 2
itervar u 0
config **.param-recording false
config image-path /home/andras/projects/Simu5G-fork/simu5g-fork/images
config output-scalar-file results/omnetpp.ini-SingleCell-CBR-DL-#0.sca
config output-scalar-precision 17
config output-vector-file results/omnetpp.ini-SingleCell-CBR-DL-#0.vec
config output-vector-precision 17
config record-eventlog false
config sim-time-limit 10s
config extends "SingleCell, CBR-DL"
config network simu5g.simulations.nr.networks.SingleCell_withSecondaryGnb
config sim-time-limit 10s
config *.carrierAggregation.numComponentCarriers 2
config *.carrierAggregation.componentCarrier[0].numerologyIndex 0
config *.carrierAggregation.componentCarrier[0].carrierFrequency 2GHz
config *.carrierAggregation.componentCarrier[0].numBands 6
config *.carrierAggregation.componentCarrier[1].numerologyIndex 0
config *.carrierAggregation.componentCarrier[1].carrierFrequency 6GHz
config *.carrierAggregation.componentCarrier[1].numBands 6
config *.masterEnb.cellularNic.numCarriers 1
config *.masterEnb.cellularNic.channelModel[0].componentCarrierModule "\"carrierAggregation.componentCarrier[0]\""
config *.secondaryGnb.cellularNic.numCarriers 1
config *.secondaryGnb.cellularNic.channelModel[0].componentCarrierModule "\"carrierAggregation.componentCarrier[1]\""
config *.ue[*].cellularNic.numCarriers 1
config *.ue[*].cellularNic.numNrCarriers 1
config *.ue[*].cellularNic.channelModel[0].componentCarrierModule "\"carrierAggregation.componentCarrier[0]\""
config *.ue[*].cellularNic.nrChannelModel[0].componentCarrierModule "\"carrierAggregation.componentCarrier[1]\""
config *.masterEnb.mobility.initialX 300m
config *.masterEnb.mobility.initialY 300m
config *.secondaryGnb.mobility.initialX 600m
config *.secondaryGnb.mobility.initialY 300m
config *.masterEnb.cellularNic.typename LteNicEnbD2D
config *.masterEnb.cellularNic.pdcpMux.isNR true
config *.masterEnb.cellularNic.pdcpLowerMux.isNR true
config *.masterEnb.cellularNic.pdcpEntityManager.isNR true
config *.masterEnb.cellularNic.rrc.bearerManagement.pdcpRxEntityModuleType "\"simu5g.stack.pdcp.NrRxPdcpEntity\""
config *.masterEnb.cellularNic.rrc.bearerManagement.pdcpTxEntityModuleType "\"simu5g.stack.pdcp.NrTxPdcpEntity\""
config *.secondaryGnb.masterId 1
config **.dualConnectivityEnabled true
config *.*nb.numX2Apps 1
config *.*nb.x2App[*].server.localPort "5000 + ancestorIndex(1)"
config *.masterEnb.x2App[0].client.connectAddress "\"secondaryGnb%x2ppp0\""
config *.secondaryGnb.x2App[0].client.connectAddress "\"masterEnb%x2ppp0\""
config *.numUe 10
config *.ue[*].servingNodeId 1
config *.ue[*].nrServingNodeId 2
config **.mobility.constraintAreaMaxX 700m
config **.mobility.constraintAreaMaxY 400m
config **.mobility.constraintAreaMinX 200m
config **.mobility.constraintAreaMinY 200m
config *.ue[*].mobility.typename RandomWaypointMobility
config *.ue[*].mobility.initialX uniform(200m,700m)
config *.ue[*].mobility.initialY uniform(200m,400m)
config *.ue[*].mobility.speed uniform(5mps,15mps)
config *.ue[*].numApps 2
config *.server.numApps 10*2
config *.ue[*].app[*].typename CbrReceiver
config *.ue[*].app[0].localPort 1000
config *.ue[*].app[1].localPort 10000
config *.server.app[*].samplingTime 0.02s
config *.server.app[0..9].destAddress "\"ue[\"+string(ancestorIndex(0))+\"]\""
config *.server.app[10..19].destAddress "\"ue[\"+string(ancestorIndex(0)-10)+\"]\""
config *.server.app[0..9].destPort 1000
config *.server.app[10..19].destPort 10000
config *.server.app[0..9].tos 0
config *.server.app[10..19].tos 10
config *.server.app[*].localPort 3088+ancestorIndex(0)
config *.server.app[*].typename CbrSender
config *.server.app[*].startTime uniform(0.01s,0.02s)
config sim-time-limit 20s
config **.routingRecorder.enabled false
config seed-set 0
config **.sctp.**.scalar-recording false
config **.sctp.**.vector-recording false
config **.vector-recording true
config output-scalar-file "results/SingleCell-CBR-DL/$u=0, $numUe=10, $numUeApps=2-0.sca"
config output-vector-file "results/SingleCell-CBR-DL/$u=0, $numUe=10, $numUeApps=2-0.vec"
config **.mobility.constraintAreaMinZ 0m
config **.mobility.constraintAreaMaxZ 0m
config **.mobility.initFromDisplayString false
config **.eNodeBTxPower 40dBm
config **.sctp.nagleEnabled false
config **.sctp.enableHeartbeats false
config **.downlinkInterference true
config **.uplinkInterference true
config **.enableHandover true
config **.fbPeriod 12tti
config **.targetBler 0.01
config **.blerShift 5
config *.configurator.config "xmldoc(\"./demo.xml\")"

scalar SingleCell_withSecondaryGnb.masterEnb.x2App[0].client ums 1452
scalar SingleCell_withSecondaryGnb.secondaryGnb.x2App[0].client ums 1452
scalar SingleCell_withSecondaryGnb.server.lo[0].lo rcvdPkFromHl:count 0
scalar SingleCell_withSecondaryGnb.server.lo[0].lo rcvdPkFromHl:sum(packetBytes) 0
scalar SingleCell_withSecondaryGnb.server.lo[0].lo passedUpPk:count 0
scalar SingleCell_withSecondaryGnb.server.lo[0].lo passedUpPk:sum(packetBytes) 0
scalar SingleCell_withSecondaryGnb.server.lo[0] packetDropInterfaceDown:count 0
scalar SingleCell_withSecondaryGnb.server.lo[0] packetDropInterfaceDown:sum(packetBytes) 0
scalar SingleCell_withSecondaryGnb.server.lo[0] packetDropNoCarrier:count 0
scalar SingleCell_withSecondaryGnb.server.lo[0] packetDropNoCarrier:sum(packetBytes) 0
scalar SingleCell_withSecondaryGnb.server.ppp[0].queue queueLength:last 0
scalar SingleCell_withSecondaryGnb.server.ppp[0].queue queueLength:max 0
scalar SingleCell_withSecondaryGnb.server.ppp[0].queue queueLength:timeavg 0
scalar SingleCell_withSecondaryGnb.server.ppp[0].queue queueBitLength:last 0
scalar SingleCell_withSecondaryGnb.server.ppp[0].queue queueBitLength:max 0
scalar SingleCell_withSecondaryGnb.server.ppp[0].queue queueBitLength:timeavg 0
scalar SingleCell_withSecondaryGnb.server.ppp[0].queue outgoingPackets:count 10000
scalar SingleCell_withSecondaryGnb.server.ppp[0].queue outgoingPacketLengths:sum 5440000
scalar SingleCell_withSecondaryGnb.server.ppp[0].queue incomingPackets:count 10000
scalar SingleCell_withSecondaryGnb.server.ppp[0].queue incomingPacketLengths:sum 5440000
scalar SingleCell_withSecondaryGnb.server.ppp[0].queue droppedPacketsQueueOverflow:count 0
scalar SingleCell_withSecondaryGnb.server.ppp[0].queue droppedPacketLengthsQueueOverflow:sum 0
scalar SingleCell_withSecondaryGnb.server.ppp[0].ppp transmissionState:timeavg 6.0000000000002543e-05
scalar SingleCell_withSecondaryGnb.server.ppp[0].ppp rxPkOk:count 0
scalar SingleCell_withSecondaryGnb.server.ppp[0].ppp rxPkOk:sum(packetBytes) 0
scalar SingleCell_withSecondaryGnb.server.ppp[0].ppp txPk:count 10000
scalar SingleCell_withSecondaryGnb.server.ppp[0].ppp txPk:sum(packetBytes) 750000
scalar SingleCell_withSecondaryGnb.server.ppp[0].ppp rcvdPkFromHl:count 10000
scalar SingleCell_withSecondaryGnb.server.ppp[0].ppp rcvdPkFromHl:sum(packetBytes) 680000
scalar SingleCell_withSecondaryGnb.server.ppp[0].ppp passedUpPk:count 0
scalar SingleCell_withSecondaryGnb.server.ppp[0].ppp passedUpPk:sum(packetBytes) 0
scalar SingleCell_withSecondaryGnb.server.ppp[0].ppp packetDropIncorrectlyReceived:count 0
scalar SingleCell_withSecondaryGnb.server.ppp[0].ppp packetDropIncorrectlyReceived:sum(packetBytes) 0
scalar SingleCell_withSecondaryGnb.server.ppp[0].ppp packetDropInterfaceDown:count 0
scalar SingleCell_withSecondaryGnb.server.ppp[0].ppp packetDropInterfaceDown:sum(packetBytes) 0
scalar SingleCell_withSecondaryGnb.server.ppp[0] packetDropInterfaceDown:count 0
scalar SingleCell_withSecondaryGnb.server.ppp[0] packetDropInterfaceDown:sum(packetBytes) 0
scalar SingleCell_withSecondaryGnb.server.ppp[0] packetDropNoCarrier:count 0
scalar SingleCell_withSecondaryGnb.server.ppp[0] packetDropNoCarrier:sum(packetBytes) 0
scalar SingleCell_withSecondaryGnb.server.ipv4.ip packetDropAddressResolutionFailed:count 0
scalar SingleCell_withSecondaryGnb.server.ipv4.ip packetDropAddressResolutionFailed:sum(packetBytes) 0
scalar SingleCell_withSecondaryGnb.server.ipv4.ip packetDropHopLimitReached:count 0
scalar SingleCell_withSecondaryGnb.server.ipv4.ip packetDropHopLimitReached:sum(packetBytes) 0
scalar SingleCell_withSecondaryGnb.server.ipv4.ip packetDropForwardingDisabled:count 0
scalar SingleCell_withSecondaryGnb.server.ipv4.ip packetDropForwardingDisabled:sum(packetBytes) 0
scalar SingleCell_withSecondaryGnb.server.ipv4.ip packetDropNoInterfaceFound:count 0
scalar SingleCell_withSecondaryGnb.server.ipv4.ip packetDropNoInterfaceFound:sum(packetBytes) 0
scalar SingleCell_withSecondaryGnb.server.ipv4.ip packetDropNoRouteFound:count 0
scalar SingleCell_withSecondaryGnb.server.ipv4.ip packetDropNoRouteFound:sum(packetBytes) 0
scalar SingleCell_withSecondaryGnb.server.ipv4.ip packetDropUndefined:count 0
scalar SingleCell_withSecondaryGnb.server.ipv4.ip packetDropUndefined:sum(packetBytes) 0
scalar SingleCell_withSecondaryGnb.server.ipv4.arp arpResolutionFailed:count 0
scalar SingleCell_withSecondaryGnb.server.ipv4.arp arpResolutionCompleted:count 0
scalar SingleCell_withSecondaryGnb.server.ipv4.arp arpResolutionInitiated:count 0
scalar SingleCell_withSecondaryGnb.server.ipv4.arp arpReplySent:count 0
scalar SingleCell_withSecondaryGnb.server.ipv4.arp arpReplySent:sum(packetBytes) 0
scalar SingleCell_withSecondaryGnb.server.ipv4.arp arpRequestSent:count 0
scalar SingleCell_withSecondaryGnb.server.ipv4.arp arpRequestSent:sum(packetBytes) 0
scalar SingleCell_withSecondaryGnb.server.udp packetReceived:count 0
scalar SingleCell_withSecondaryGnb.server.udp packetReceived:sum(packetBytes) 0
scalar SingleCell_withSecondaryGnb.server.udp packetSent:count 10000
scalar SingleCell_withSecondaryGnb.server.udp packetSent:sum(packetBytes) 480000
scalar SingleCell_withSecondaryGnb.server.udp passedUpPk:count 0
scalar SingleCell_withSecondaryGnb.server.udp droppedPkWrongPort:count 0
scalar SingleCell_withSecondaryGnb.server.udp droppedPkBadChecksum:count 0
scalar SingleCell_withSecondaryGnb.server.app[0] cbrGeneratedBytes:mean 40
scalar SingleCell_withSecondaryGnb.server.app[0] cbrGeneratedBytes:last(sumPerDuration) 2000.3770341155655
scalar SingleCell_withSecondaryGnb.server.app[0] cbrGeneratedThroughput:simu5g_rateavg 2000
scalar SingleCell_withSecondaryGnb.server.app[1] cbrGeneratedBytes:mean 40
scalar SingleCell_withSecondaryGnb.server.app[1] cbrGeneratedBytes:last(sumPerDuration) 2001.2870198362109
scalar SingleCell_withSecondaryGnb.server.app[1] cbrGeneratedThroughput:simu5g_rateavg 2000
scalar SingleCell_withSecondaryGnb.server.app[2] cbrGeneratedBytes:mean 40
scalar SingleCell_withSecondaryGnb.server.app[2] cbrGeneratedBytes:last(sumPerDuration) 2001.0483812987547
scalar SingleCell_withSecondaryGnb.server.app[2] cbrGeneratedThroughput:simu5g_rateavg 2000
scalar SingleCell_withSecondaryGnb.server.app[3] cbrGeneratedBytes:mean 40
scalar SingleCell_withSecondaryGnb.server.app[3] cbrGeneratedBytes:last(sumPerDuration) 2000.132328773873
scalar SingleCell_withSecondaryGnb.server.app[3] cbrGeneratedThroughput:simu5g_rateavg 2000
scalar SingleCell_withSecondaryGnb.server.app[4] cbrGeneratedBytes:mean 40
scalar SingleCell_withSecondaryGnb.server.app[4] cbrGeneratedBytes:last(sumPerDuration) 2000.9541429929691
scalar SingleCell_withSecondaryGnb.server.app[4] cbrGeneratedThroughput:simu5g_rateavg 2000
scalar SingleCell_withSecondaryGnb.server.app[5] cbrGeneratedBytes:mean 40
scalar SingleCell_withSecondaryGnb.server.app[5] cbrGeneratedBytes:last(sumPerDuration) 2001.2681492717506
scalar SingleCell_withSecondaryGnb.server.app[5] cbrGeneratedThroughput:simu5g_rateavg 2000
scalar SingleCell_withSecondaryGnb.server.app[6] cbrGeneratedBytes:mean 40
scalar SingleCell_withSecondaryGnb.server.app[6] cbrGeneratedBytes:last(sumPerDuration) 2001.5000831144173
scalar SingleCell_withSecondaryGnb.server.app[6] cbrGeneratedThroughput:simu5g_rateavg 2000
scalar SingleCell_withSecondaryGnb.server.app[7] cbrGeneratedBytes:mean 40
scalar SingleCell_withSecondaryGnb.server.app[7] cbrGeneratedBytes:last(sumPerDuration) 2000.1477281493972
scalar SingleCell_withSecondaryGnb.server.app[7] cbrGeneratedThroughput:simu5g_rateavg 2000
scalar SingleCell_withSecondaryGnb.server.app[8] cbrGeneratedBytes:mean 40
scalar SingleCell_withSecondaryGnb.server.app[8] cbrGeneratedBytes:last(sumPerDuration) 2000.7902260669016
scalar SingleCell_withSecondaryGnb.server.app[8] cbrGeneratedThroughput:simu5g_rateavg 2000
scalar SingleCell_withSecondaryGnb.server.app[9] cbrGeneratedBytes:mean 40
scalar SingleCell_withSecondaryGnb.server.app[9] cbrGeneratedBytes:last(sumPerDuration) 2001.8846394459997
scalar SingleCell_withSecondaryGnb.server.app[9] cbrGeneratedThroughput:simu5g_rateavg 2000
scalar SingleCell_withSecondaryGnb.server.app[10] cbrGeneratedBytes:mean 40
scalar SingleCell_withSecondaryGnb.server.app[10] cbrGeneratedBytes:last(sumPerDuration) 2001.3951629397736
scalar SingleCell_withSecondaryGnb.server.app[10] cbrGeneratedThroughput:simu5g_rateavg 2000
scalar SingleCell_withSecondaryGnb.server.app[11] cbrGeneratedBytes:mean 40
scalar SingleCell_withSecondaryGnb.server.app[11] cbrGeneratedBytes:last(sumPerDuration) 2001.5613379975653
scalar SingleCell_withSecondaryGnb.server.app[11] cbrGeneratedThroughput:simu5g_rateavg 2000
scalar SingleCell_withSecondaryGnb.server.app[12] cbrGeneratedBytes:mean 40
scalar SingleCell_withSecondaryGnb.server.app[12] cbrGeneratedBytes:last(sumPerDuration) 2000.8457895099505
scalar SingleCell_withSecondaryGnb.server.app[12] cbrGeneratedThroughput:simu5g_rateavg 2000
scalar SingleCell_withSecondaryGnb.server.app[13] cbrGeneratedBytes:mean 40
scalar SingleCell_withSecondaryGnb.server.app[13] cbrGeneratedBytes:last(sumPerDuration) 2000.3146934780025
scalar SingleCell_withSecondaryGnb.server.app[13] cbrGeneratedThroughput:simu5g_rateavg 2000
scalar SingleCell_withSecondaryGnb.server.app[14] cbrGeneratedBytes:mean 40
scalar SingleCell_withSecondaryGnb.server.app[14] cbrGeneratedBytes:last(sumPerDuration) 2001.6620237729023
scalar SingleCell_withSecondaryGnb.server.app[14] cbrGeneratedThroughput:simu5g_rateavg 2000
scalar SingleCell_withSecondaryGnb.server.app[15] cbrGeneratedBytes:mean 40
scalar SingleCell_withSecondaryGnb.server.app[15] cbrGeneratedBytes:last(sumPerDuration) 2001.6740538957381
scalar SingleCell_withSecondaryGnb.server.app[15] cbrGeneratedThroughput:simu5g_rateavg 2000
scalar SingleCell_withSecondaryGnb.server.app[16] cbrGeneratedBytes:mean 40
scalar SingleCell_withSecondaryGnb.server.app[16] cbrGeneratedBytes:last(sumPerDuration) 2001.6824759912745
scalar SingleCell_withSecondaryGnb.server.app[16] cbrGeneratedThroughput:simu5g_rateavg 2000
scalar SingleCell_withSecondaryGnb.server.app[17] cbrGeneratedBytes:mean 40
scalar SingleCell_withSecondaryGnb.server.app[17] cbrGeneratedBytes:last(sumPerDuration) 2001.480590181425
scalar SingleCell_withSecondaryGnb.server.app[17] cbrGeneratedThroughput:simu5g_rateavg 2000
scalar SingleCell_withSecondaryGnb.server.app[18] cbrGeneratedBytes:mean 40
scalar SingleCell_withSecondaryGnb.server.app[18] cbrGeneratedBytes:last(sumPerDuration) 2001.1666206195227
scalar SingleCell_withSecondaryGnb.server.app[18] cbrGeneratedThroughput:simu5g_rateavg 2000
scalar SingleCell_withSecondaryGnb.server.app[19] cbrGeneratedBytes:mean 40
scalar SingleCell_withSecondaryGnb.server.app[19] cbrGeneratedBytes:last(sumPerDuration) 2001.2583564530551
scalar SingleCell_withSecondaryGnb.server.app[19] cbrGeneratedThroughput:simu5g_rateavg 2000
scalar SingleCell_withSecondaryGnb.router.lo[0].lo rcvdPkFromHl:count 0
scalar SingleCell_withSecondaryGnb.router.lo[0].lo rcvdPkFromHl:sum(packetBytes) 0
scalar SingleCell_withSecondaryGnb.router.lo[0].lo passedUpPk:count 0
scalar SingleCell_withSecondaryGnb.router.lo[0].lo passedUpPk:sum(packetBytes) 0
scalar SingleCell_withSecondaryGnb.router.lo[0] packetDropInterfaceDown:count 0
scalar SingleCell_withSecondaryGnb.router.lo[0] packetDropInterfaceDown:sum(packetBytes) 0
scalar SingleCell_withSecondaryGnb.router.lo[0] packetDropNoCarrier:count 0
scalar SingleCell_withSecondaryGnb.router.lo[0] packetDropNoCarrier:sum(packetBytes) 0
scalar SingleCell_withSecondaryGnb.router.ppp[0].queue queueLength:last 0
scalar SingleCell_withSecondaryGnb.router.ppp[0].queue queueLength:max 0
scalar SingleCell_withSecondaryGnb.router.ppp[0].queue queueLength:timeavg 0
scalar SingleCell_withSecondaryGnb.router.ppp[0].queue queueBitLength:last 0
scalar SingleCell_withSecondaryGnb.router.ppp[0].queue queueBitLength:max 0
scalar SingleCell_withSecondaryGnb.router.ppp[0].queue queueBitLength:timeavg 0
scalar SingleCell_withSecondaryGnb.router.ppp[0].queue outgoingPackets:count 0
scalar SingleCell_withSecondaryGnb.router.ppp[0].queue outgoingPacketLengths:sum 0
scalar SingleCell_withSecondaryGnb.router.ppp[0].queue incomingPackets:count 0
scalar SingleCell_withSecondaryGnb.router.ppp[0].queue incomingPacketLengths:sum 0
scalar SingleCell_withSecondaryGnb.router.ppp[0].queue droppedPacketsQueueOverflow:count 0
scalar SingleCell_withSecondaryGnb.router.ppp[0].queue droppedPacketLengthsQueueOverflow:sum 0
scalar SingleCell_withSecondaryGnb.router.ppp[0].ppp transmissionState:timeavg 0
scalar SingleCell_withSecondaryGnb.router.ppp[0].ppp rxPkOk:count 10000
scalar SingleCell_withSecondaryGnb.router.ppp[0].ppp rxPkOk:sum(packetBytes) 750000
scalar SingleCell_withSecondaryGnb.router.ppp[0].ppp txPk:count 0
scalar SingleCell_withSecondaryGnb.router.ppp[0].ppp txPk:sum(packetBytes) 0
scalar SingleCell_withSecondaryGnb.router.ppp[0].ppp rcvdPkFromHl:count 0
scalar SingleCell_withSecondaryGnb.router.ppp[0].ppp rcvdPkFromHl:sum(packetBytes) 0
scalar SingleCell_withSecondaryGnb.router.ppp[0].ppp passedUpPk:count 10000
scalar SingleCell_withSecondaryGnb.router.ppp[0].ppp passedUpPk:sum(packetBytes) 680000
scalar SingleCell_withSecondaryGnb.router.ppp[0].ppp packetDropIncorrectlyReceived:count 0
scalar SingleCell_withSecondaryGnb.router.ppp[0].ppp packetDropIncorrectlyReceived:sum(packetBytes) 0
scalar SingleCell_withSecondaryGnb.router.ppp[0].ppp packetDropInterfaceDown:count 0
scalar SingleCell_withSecondaryGnb.router.ppp[0].ppp packetDropInterfaceDown:sum(packetBytes) 0
scalar SingleCell_withSecondaryGnb.router.ppp[0] packetDropInterfaceDown:count 0
scalar SingleCell_withSecondaryGnb.router.ppp[0] packetDropInterfaceDown:sum(packetBytes) 0
scalar SingleCell_withSecondaryGnb.router.ppp[0] packetDropNoCarrier:count 0
scalar SingleCell_withSecondaryGnb.router.ppp[0] packetDropNoCarrier:sum(packetBytes) 0
scalar SingleCell_withSecondaryGnb.router.ppp[1].queue queueLength:last 0
scalar SingleCell_withSecondaryGnb.router.ppp[1].queue queueLength:max 0
scalar SingleCell_withSecondaryGnb.router.ppp[1].queue queueLength:timeavg 0
scalar SingleCell_withSecondaryGnb.router.ppp[1].queue queueBitLength:last 0
scalar SingleCell_withSecondaryGnb.router.ppp[1].queue queueBitLength:max 0
scalar SingleCell_withSecondaryGnb.router.ppp[1].queue queueBitLength:timeavg 0
scalar SingleCell_withSecondaryGnb.router.ppp[1].queue outgoingPackets:count 10000
scalar SingleCell_withSecondaryGnb.router.ppp[1].queue outgoingPacketLengths:sum 5440000
scalar SingleCell_withSecondaryGnb.router.ppp[1].queue incomingPackets:count 10000
scalar SingleCell_withSecondaryGnb.router.ppp[1].queue incomingPacketLengths:sum 5440000
scalar SingleCell_withSecondaryGnb.router.ppp[1].queue droppedPacketsQueueOverflow:count 0
scalar SingleCell_withSecondaryGnb.router.ppp[1].queue droppedPacketLengthsQueueOverflow:sum 0
scalar SingleCell_withSecondaryGnb.router.ppp[1].ppp transmissionState:timeavg 6.0000000000002543e-05
scalar SingleCell_withSecondaryGnb.router.ppp[1].ppp rxPkOk:count 0
scalar SingleCell_withSecondaryGnb.router.ppp[1].ppp rxPkOk:sum(packetBytes) 0
scalar SingleCell_withSecondaryGnb.router.ppp[1].ppp txPk:count 10000
scalar SingleCell_withSecondaryGnb.router.ppp[1].ppp txPk:sum(packetBytes) 750000
scalar SingleCell_withSecondaryGnb.router.ppp[1].ppp rcvdPkFromHl:count 10000
scalar SingleCell_withSecondaryGnb.router.ppp[1].ppp rcvdPkFromHl:sum(packetBytes) 680000
scalar SingleCell_withSecondaryGnb.router.ppp[1].ppp passedUpPk:count 0
scalar SingleCell_withSecondaryGnb.router.ppp[1].ppp passedUpPk:sum(packetBytes) 0
scalar SingleCell_withSecondaryGnb.router.ppp[1].ppp packetDropIncorrectlyReceived:count 0
scalar SingleCell_withSecondaryGnb.router.ppp[1].ppp packetDropIncorrectlyReceived:sum(packetBytes) 0
scalar SingleCell_withSecondaryGnb.router.ppp[1].ppp packetDropInterfaceDown:count 0
scalar SingleCell_withSecondaryGnb.router.ppp[1].ppp packetDropInterfaceDown:sum(packetBytes) 0
scalar SingleCell_withSecondaryGnb.router.ppp[1] packetDropInterfaceDown:count 0
scalar SingleCell_withSecondaryGnb.router.ppp[1] packetDropInterfaceDown:sum(packetBytes) 0
scalar SingleCell_withSecondaryGnb.router.ppp[1] packetDropNoCarrier:count 0
scalar SingleCell_withSecondaryGnb.router.ppp[1] packetDropNoCarrier:sum(packetBytes) 0
scalar SingleCell_withSecondaryGnb.router.ipv4.ip packetDropAddressResolutionFailed:count 0
scalar SingleCell_withSecondaryGnb.router.ipv4.ip packetDropAddressResolutionFailed:sum(packetBytes) 0
scalar SingleCell_withSecondaryGnb.router.ipv4.ip packetDropHopLimitReached:count 0
scalar SingleCell_withSecondaryGnb.router.ipv4.ip packetDropHopLimitReached:sum(packetBytes) 0
scalar SingleCell_withSecondaryGnb.router.ipv4.ip packetDropForwardingDisabled:count 0
scalar SingleCell_withSecondaryGnb.router.ipv4.ip packetDropForwardingDisabled:sum(packetBytes) 0
scalar SingleCell_withSecondaryGnb.router.ipv4.ip packetDropNoInterfaceFound:count 0
scalar SingleCell_withSecondaryGnb.router.ipv4.ip packetDropNoInterfaceFound:sum(packetBytes) 0
scalar SingleCell_withSecondaryGnb.router.ipv4.ip packetDropNoRouteFound:count 0
scalar SingleCell_withSecondaryGnb.router.ipv4.ip packetDropNoRouteFound:sum(packetBytes) 0
scalar SingleCell_withSecondaryGnb.router.ipv4.ip packetDropUndefined:count 0
scalar SingleCell_withSecondaryGnb.router.ipv4.ip packetDropUndefined:sum(packetBytes) 0
scalar SingleCell_withSecondaryGnb.router.ipv4.arp arpResolutionFailed:count 0
scalar SingleCell_withSecondaryGnb.router.ipv4.arp arpResolutionCompleted:count 0
scalar SingleCell_withSecondaryGnb.router.ipv4.arp arpResolutionInitiated:count 0
scalar SingleCell_withSecondaryGnb.router.ipv4.arp arpReplySent:count 0
scalar SingleCell_withSecondaryGnb.router.ipv4.arp arpReplySent:sum(packetBytes) 0
scalar SingleCell_withSecondaryGnb.router.ipv4.arp arpRequestSent:count 0
scalar SingleCell_withSecondaryGnb.router.ipv4.arp arpRequestSent:sum(packetBytes) 0
scalar SingleCell_withSecondaryGnb.pgw.lo[0].lo rcvdPkFromHl:count 0
scalar SingleCell_withSecondaryGnb.pgw.lo[0].lo rcvdPkFromHl:sum(packetBytes) 0
scalar SingleCell_withSecondaryGnb.pgw.lo[0].lo passedUpPk:count 0
scalar SingleCell_withSecondaryGnb.pgw.lo[0].lo passedUpPk:sum(packetBytes) 0
scalar SingleCell_withSecondaryGnb.pgw.lo[0] packetDropInterfaceDown:count 0
scalar SingleCell_withSecondaryGnb.pgw.lo[0] packetDropInterfaceDown:sum(packetBytes) 0
scalar SingleCell_withSecondaryGnb.pgw.lo[0] packetDropNoCarrier:count 0
scalar SingleCell_withSecondaryGnb.pgw.lo[0] packetDropNoCarrier:sum(packetBytes) 0
scalar SingleCell_withSecondaryGnb.pgw.ppp[0].queue queueLength:last 0
scalar SingleCell_withSecondaryGnb.pgw.ppp[0].queue queueLength:max 0
scalar SingleCell_withSecondaryGnb.pgw.ppp[0].queue queueLength:timeavg 0
scalar SingleCell_withSecondaryGnb.pgw.ppp[0].queue queueBitLength:last 0
scalar SingleCell_withSecondaryGnb.pgw.ppp[0].queue queueBitLength:max 0
scalar SingleCell_withSecondaryGnb.pgw.ppp[0].queue queueBitLength:timeavg 0
scalar SingleCell_withSecondaryGnb.pgw.ppp[0].queue outgoingPackets:count 10000
scalar SingleCell_withSecondaryGnb.pgw.ppp[0].queue outgoingPacketLengths:sum 8320000
scalar SingleCell_withSecondaryGnb.pgw.ppp[0].queue incomingPackets:count 10000
scalar SingleCell_withSecondaryGnb.pgw.ppp[0].queue incomingPacketLengths:sum 8320000
scalar SingleCell_withSecondaryGnb.pgw.ppp[0].queue droppedPacketsQueueOverflow:count 0
scalar SingleCell_withSecondaryGnb.pgw.ppp[0].queue droppedPacketLengthsQueueOverflow:sum 0
scalar SingleCell_withSecondaryGnb.pgw.ppp[0].ppp transmissionState:timeavg 8.8800000000009341e-05
scalar SingleCell_withSecondaryGnb.pgw.ppp[0].ppp rxPkOk:count 0
scalar SingleCell_withSecondaryGnb.pgw.ppp[0].ppp rxPkOk:sum(packetBytes) 0
scalar SingleCell_withSecondaryGnb.pgw.ppp[0].ppp txPk:count 10000
scalar SingleCell_withSecondaryGnb.pgw.ppp[0].ppp txPk:sum(packetBytes) 1110000
scalar SingleCell_withSecondaryGnb.pgw.ppp[0].ppp rcvdPkFromHl:count 10000
scalar SingleCell_withSecondaryGnb.pgw.ppp[0].ppp rcvdPkFromHl:sum(packetBytes) 1040000
scalar SingleCell_withSecondaryGnb.pgw.ppp[0].ppp passedUpPk:count 0
scalar SingleCell_withSecondaryGnb.pgw.ppp[0].ppp passedUpPk:sum(packetBytes) 0
scalar SingleCell_withSecondaryGnb.pgw.ppp[0].ppp packetDropIncorrectlyReceived:count 0
scalar SingleCell_withSecondaryGnb.pgw.ppp[0].ppp packetDropIncorrectlyReceived:sum(packetBytes) 0
scalar SingleCell_withSecondaryGnb.pgw.ppp[0].ppp packetDropInterfaceDown:count 0
scalar SingleCell_withSecondaryGnb.pgw.ppp[0].ppp packetDropInterfaceDown:sum(packetBytes) 0
scalar SingleCell_withSecondaryGnb.pgw.ppp[0] packetDropInterfaceDown:count 0
scalar SingleCell_withSecondaryGnb.pgw.ppp[0] packetDropInterfaceDown:sum(packetBytes) 0
scalar SingleCell_withSecondaryGnb.pgw.ppp[0] packetDropNoCarrier:count 0
scalar SingleCell_withSecondaryGnb.pgw.ppp[0] packetDropNoCarrier:sum(packetBytes) 0
scalar SingleCell_withSecondaryGnb.pgw.ipv4.ip packetDropAddressResolutionFailed:count 0
scalar SingleCell_withSecondaryGnb.pgw.ipv4.ip packetDropAddressResolutionFailed:sum(packetBytes) 0
scalar SingleCell_withSecondaryGnb.pgw.ipv4.ip packetDropHopLimitReached:count 0
scalar SingleCell_withSecondaryGnb.pgw.ipv4.ip packetDropHopLimitReached:sum(packetBytes) 0
scalar SingleCell_withSecondaryGnb.pgw.ipv4.ip packetDropForwardingDisabled:count 0
scalar SingleCell_withSecondaryGnb.pgw.ipv4.ip packetDropForwardingDisabled:sum(packetBytes) 0
scalar SingleCell_withSecondaryGnb.pgw.ipv4.ip packetDropNoInterfaceFound:count 0
scalar SingleCell_withSecondaryGnb.pgw.ipv4.ip packetDropNoInterfaceFound:sum(packetBytes) 0
scalar SingleCell_withSecondaryGnb.pgw.ipv4.ip packetDropNoRouteFound:count 0
scalar SingleCell_withSecondaryGnb.pgw.ipv4.ip packetDropNoRouteFound:sum(packetBytes) 0
scalar SingleCell_withSecondaryGnb.pgw.ipv4.ip packetDropUndefined:count 0
scalar SingleCell_withSecondaryGnb.pgw.ipv4.ip packetDropUndefined:sum(packetBytes) 0
scalar SingleCell_withSecondaryGnb.pgw.ipv4.arp arpResolutionFailed:count 0
scalar SingleCell_withSecondaryGnb.pgw.ipv4.arp arpResolutionCompleted:count 0
scalar SingleCell_withSecondaryGnb.pgw.ipv4.arp arpResolutionInitiated:count 0
scalar SingleCell_withSecondaryGnb.pgw.ipv4.arp arpReplySent:count 0
scalar SingleCell_withSecondaryGnb.pgw.ipv4.arp arpReplySent:sum(packetBytes) 0
scalar SingleCell_withSecondaryGnb.pgw.ipv4.arp arpRequestSent:count 0
scalar SingleCell_withSecondaryGnb.pgw.ipv4.arp arpRequestSent:sum(packetBytes) 0
scalar SingleCell_withSecondaryGnb.pgw.udp packetReceived:count 0
scalar SingleCell_withSecondaryGnb.pgw.udp packetReceived:sum(packetBytes) 0
scalar SingleCell_withSecondaryGnb.pgw.udp packetSent:count 10000
scalar SingleCell_withSecondaryGnb.pgw.udp packetSent:sum(packetBytes) 840000
scalar SingleCell_withSecondaryGnb.pgw.udp passedUpPk:count 0
scalar SingleCell_withSecondaryGnb.pgw.udp droppedPkWrongPort:count 0
scalar SingleCell_withSecondaryGnb.pgw.udp droppedPkBadChecksum:count 0
scalar SingleCell_withSecondaryGnb.pgw.dnPpp.queue queueLength:last 0
scalar SingleCell_withSecondaryGnb.pgw.dnPpp.queue queueLength:max 0
scalar SingleCell_withSecondaryGnb.pgw.dnPpp.queue queueLength:timeavg 0
scalar SingleCell_withSecondaryGnb.pgw.dnPpp.queue queueBitLength:last 0
scalar SingleCell_withSecondaryGnb.pgw.dnPpp.queue queueBitLength:max 0
scalar SingleCell_withSecondaryGnb.pgw.dnPpp.queue queueBitLength:timeavg 0
scalar SingleCell_withSecondaryGnb.pgw.dnPpp.queue outgoingPackets:count 0
scalar SingleCell_withSecondaryGnb.pgw.dnPpp.queue outgoingPacketLengths:sum 0
scalar SingleCell_withSecondaryGnb.pgw.dnPpp.queue incomingPackets:count 0
scalar SingleCell_withSecondaryGnb.pgw.dnPpp.queue incomingPacketLengths:sum 0
scalar SingleCell_withSecondaryGnb.pgw.dnPpp.queue droppedPacketsQueueOverflow:count 0
scalar SingleCell_withSecondaryGnb.pgw.dnPpp.queue droppedPacketLengthsQueueOverflow:sum 0
scalar SingleCell_withSecondaryGnb.pgw.dnPpp.ppp transmissionState:timeavg 0
scalar SingleCell_withSecondaryGnb.pgw.dnPpp.ppp rxPkOk:count 10000
scalar SingleCell_withSecondaryGnb.pgw.dnPpp.ppp rxPkOk:sum(packetBytes) 750000
scalar SingleCell_withSecondaryGnb.pgw.dnPpp.ppp txPk:count 0
scalar SingleCell_withSecondaryGnb.pgw.dnPpp.ppp txPk:sum(packetBytes) 0
scalar SingleCell_withSecondaryGnb.pgw.dnPpp.ppp rcvdPkFromHl:count 0
scalar SingleCell_withSecondaryGnb.pgw.dnPpp.ppp rcvdPkFromHl:sum(packetBytes) 0
scalar SingleCell_withSecondaryGnb.pgw.dnPpp.ppp passedUpPk:count 10000
scalar SingleCell_withSecondaryGnb.pgw.dnPpp.ppp passedUpPk:sum(packetBytes) 680000
scalar SingleCell_withSecondaryGnb.pgw.dnPpp.ppp packetDropIncorrectlyReceived:count 0
scalar SingleCell_withSecondaryGnb.pgw.dnPpp.ppp packetDropIncorrectlyReceived:sum(packetBytes) 0
scalar SingleCell_withSecondaryGnb.pgw.dnPpp.ppp packetDropInterfaceDown:count 0
scalar SingleCell_withSecondaryGnb.pgw.dnPpp.ppp packetDropInterfaceDown:sum(packetBytes) 0
scalar SingleCell_withSecondaryGnb.pgw.dnPpp packetDropInterfaceDown:count 0
scalar SingleCell_withSecondaryGnb.pgw.dnPpp packetDropInterfaceDown:sum(packetBytes) 0
scalar SingleCell_withSecondaryGnb.pgw.dnPpp packetDropNoCarrier:count 0
scalar SingleCell_withSecondaryGnb.pgw.dnPpp packetDropNoCarrier:sum(packetBytes) 0
scalar SingleCell_withSecondaryGnb.masterEnb.cellularNic.rlcMux rlcCellThroughputD2D:simu5g_rateavg -nan
scalar SingleCell_withSecondaryGnb.masterEnb.cellularNic.rlcMux rlcPduThroughputD2D:simu5g_rateavg -nan
scalar SingleCell_withSecondaryGnb.masterEnb.cellularNic.rlcMux rlcPduDelayD2D:mean -nan
scalar SingleCell_withSecondaryGnb.masterEnb.cellularNic.rlcMux rlcThroughputD2D:simu5g_rateavg -nan
scalar SingleCell_withSecondaryGnb.masterEnb.cellularNic.rlcMux rlcDelayD2D:mean -nan
scalar SingleCell_withSecondaryGnb.masterEnb.cellularNic.rlcMux rlcCellThroughputUl:simu5g_rateavg -nan
scalar SingleCell_withSecondaryGnb.masterEnb.cellularNic.rlcMux rlcCellThroughputDl:simu5g_rateavg 68434.163546777127
scalar SingleCell_withSecondaryGnb.masterEnb.cellularNic.rlcMux rlcPduThroughputUl:simu5g_rateavg -nan
scalar SingleCell_withSecondaryGnb.masterEnb.cellularNic.rlcMux rlcPduThroughputDl:simu5g_rateavg -nan
scalar SingleCell_withSecondaryGnb.masterEnb.cellularNic.rlcMux rlcPduDelayUl:mean -nan
scalar SingleCell_withSecondaryGnb.masterEnb.cellularNic.rlcMux rlcPduDelayDl:mean -nan
scalar SingleCell_withSecondaryGnb.masterEnb.cellularNic.rlcMux rlcThroughputUl:simu5g_rateavg -nan
scalar SingleCell_withSecondaryGnb.masterEnb.cellularNic.rlcMux rlcThroughputDl:simu5g_rateavg -nan
scalar SingleCell_withSecondaryGnb.masterEnb.cellularNic.rlcMux rlcDelayUl:mean -nan
scalar SingleCell_withSecondaryGnb.masterEnb.cellularNic.rlcMux rlcDelayDl:mean -nan
scalar SingleCell_withSecondaryGnb.masterEnb.cellularNic.rlcMux sentPacketToLowerLayer:count 10000
scalar SingleCell_withSecondaryGnb.masterEnb.cellularNic.rlcMux sentPacketToLowerLayer:sum(packetBytes) 700000
scalar SingleCell_withSecondaryGnb.masterEnb.cellularNic.rlcMux receivedPacketFromLowerLayer:count 0
scalar SingleCell_withSecondaryGnb.masterEnb.cellularNic.rlcMux receivedPacketFromLowerLayer:sum(packetBytes) 0
scalar SingleCell_withSecondaryGnb.masterEnb.cellularNic.mac avgServedBlocksUl:mean 0
scalar SingleCell_withSecondaryGnb.masterEnb.cellularNic.mac avgServedBlocksDl:mean 0.50290000000000001
scalar SingleCell_withSecondaryGnb.masterEnb.cellularNic.mac macCellPacketLossD2D:mean -nan
scalar SingleCell_withSecondaryGnb.masterEnb.cellularNic.mac macCellThroughputD2D:simu5g_rateavg -nan
scalar SingleCell_withSecondaryGnb.masterEnb.cellularNic.mac harqTxAttemptsUl:mean -nan
scalar SingleCell_withSecondaryGnb.masterEnb.cellularNic.mac harqTxAttemptsDl:mean -nan
scalar SingleCell_withSecondaryGnb.masterEnb.cellularNic.mac harqErrorRate_4th_Ul:mean -nan
scalar SingleCell_withSecondaryGnb.masterEnb.cellularNic.mac harqErrorRate_4th_Dl:mean -nan
scalar SingleCell_withSecondaryGnb.masterEnb.cellularNic.mac harqErrorRate_3rd_Ul:mean -nan
scalar SingleCell_withSecondaryGnb.masterEnb.cellularNic.mac harqErrorRate_3rd_Dl:mean -nan
scalar SingleCell_withSecondaryGnb.masterEnb.cellularNic.mac harqErrorRate_2nd_Ul:mean -nan
scalar SingleCell_withSecondaryGnb.masterEnb.cellularNic.mac harqErrorRate_2nd_Dl:mean -nan
scalar SingleCell_withSecondaryGnb.masterEnb.cellularNic.mac harqErrorRate_1st_Ul:mean -nan
scalar SingleCell_withSecondaryGnb.masterEnb.cellularNic.mac harqErrorRate_1st_Dl:mean -nan
scalar SingleCell_withSecondaryGnb.masterEnb.cellularNic.mac harqErrorRateUl:mean -nan
scalar SingleCell_withSecondaryGnb.masterEnb.cellularNic.mac harqErrorRateDl:mean -nan
scalar SingleCell_withSecondaryGnb.masterEnb.cellularNic.mac macCellPacketLossUl:mean -nan
scalar SingleCell_withSecondaryGnb.masterEnb.cellularNic.mac macCellPacketLossDl:mean 0
scalar SingleCell_withSecondaryGnb.masterEnb.cellularNic.mac macPacketLossUl:mean -nan
scalar SingleCell_withSecondaryGnb.masterEnb.cellularNic.mac macPacketLossDl:mean -nan
scalar SingleCell_withSecondaryGnb.masterEnb.cellularNic.mac macThroughputUl:simu5g_rateavg -nan
scalar SingleCell_withSecondaryGnb.masterEnb.cellularNic.mac macThroughputDl:simu5g_rateavg -nan
scalar SingleCell_withSecondaryGnb.masterEnb.cellularNic.mac macDelayUl:mean -nan
scalar SingleCell_withSecondaryGnb.masterEnb.cellularNic.mac macDelayDl:mean -nan
scalar SingleCell_withSecondaryGnb.masterEnb.cellularNic.mac macCellThroughputUl:simu5g_rateavg -nan
scalar SingleCell_withSecondaryGnb.masterEnb.cellularNic.mac macCellThroughputDl:simu5g_rateavg 72401.361433546859
scalar SingleCell_withSecondaryGnb.masterEnb.cellularNic.mac sentPacketToLowerLayer:count 5023
scalar SingleCell_withSecondaryGnb.masterEnb.cellularNic.mac sentPacketToLowerLayer:sum(packetBytes) 366679
scalar SingleCell_withSecondaryGnb.masterEnb.cellularNic.mac sentPacketToUpperLayer:count 5000
scalar SingleCell_withSecondaryGnb.masterEnb.cellularNic.mac sentPacketToUpperLayer:sum(packetBytes) 5000
scalar SingleCell_withSecondaryGnb.masterEnb.cellularNic.mac receivedPacketFromLowerLayer:count 13358
scalar SingleCell_withSecondaryGnb.masterEnb.cellularNic.mac receivedPacketFromLowerLayer:sum(packetBytes) 13358
scalar SingleCell_withSecondaryGnb.masterEnb.cellularNic.mac receivedPacketFromUpperLayer:count 10000
scalar SingleCell_withSecondaryGnb.masterEnb.cellularNic.mac receivedPacketFromUpperLayer:sum(packetBytes) 700000
scalar SingleCell_withSecondaryGnb.masterEnb.cellularNic.mac macBufferOverFlowD2D:mean -nan
scalar SingleCell_withSecondaryGnb.masterEnb.cellularNic.mac macBufferOverFlowUl:mean -nan
scalar SingleCell_withSecondaryGnb.masterEnb.cellularNic.mac macBufferOverFlowDl:mean -nan
scalar SingleCell_withSecondaryGnb.masterEnb.cellularNic.channelModel[0] measuredSinrUl:mean -nan
scalar SingleCell_withSecondaryGnb.masterEnb.cellularNic.channelModel[0] measuredSinrDl:mean -nan
scalar SingleCell_withSecondaryGnb.masterEnb.cellularNic.channelModel[0] rcvdSinrD2D:mean -nan
scalar SingleCell_withSecondaryGnb.masterEnb.cellularNic.channelModel[0] rcvdSinrUl:mean -nan
scalar SingleCell_withSecondaryGnb.masterEnb.cellularNic.channelModel[0] rcvdSinrDl:mean -nan
scalar SingleCell_withSecondaryGnb.masterEnb.cellularNic packetDropInterfaceDown:count 0
scalar SingleCell_withSecondaryGnb.masterEnb.cellularNic packetDropInterfaceDown:sum(packetBytes) 0
scalar SingleCell_withSecondaryGnb.masterEnb.cellularNic packetDropNoCarrier:count 0
scalar SingleCell_withSecondaryGnb.masterEnb.cellularNic packetDropNoCarrier:sum(packetBytes) 0
scalar SingleCell_withSecondaryGnb.masterEnb.pppIf.queue queueLength:last 0
scalar SingleCell_withSecondaryGnb.masterEnb.pppIf.queue queueLength:max 0
scalar SingleCell_withSecondaryGnb.masterEnb.pppIf.queue queueLength:timeavg 0
scalar SingleCell_withSecondaryGnb.masterEnb.pppIf.queue queueBitLength:last 0
scalar SingleCell_withSecondaryGnb.masterEnb.pppIf.queue queueBitLength:max 0
scalar SingleCell_withSecondaryGnb.masterEnb.pppIf.queue queueBitLength:timeavg 0
scalar SingleCell_withSecondaryGnb.masterEnb.pppIf.queue outgoingPackets:count 0
scalar SingleCell_withSecondaryGnb.masterEnb.pppIf.queue outgoingPacketLengths:sum 0
scalar SingleCell_withSecondaryGnb.masterEnb.pppIf.queue incomingPackets:count 0
scalar SingleCell_withSecondaryGnb.masterEnb.pppIf.queue incomingPacketLengths:sum 0
scalar SingleCell_withSecondaryGnb.masterEnb.pppIf.queue droppedPacketsQueueOverflow:count 0
scalar SingleCell_withSecondaryGnb.masterEnb.pppIf.queue droppedPacketLengthsQueueOverflow:sum 0
scalar SingleCell_withSecondaryGnb.masterEnb.pppIf.ppp transmissionState:timeavg 0
scalar SingleCell_withSecondaryGnb.masterEnb.pppIf.ppp rxPkOk:count 10000
scalar SingleCell_withSecondaryGnb.masterEnb.pppIf.ppp rxPkOk:sum(packetBytes) 1110000
scalar SingleCell_withSecondaryGnb.masterEnb.pppIf.ppp txPk:count 0
scalar SingleCell_withSecondaryGnb.masterEnb.pppIf.ppp txPk:sum(packetBytes) 0
scalar SingleCell_withSecondaryGnb.masterEnb.pppIf.ppp rcvdPkFromHl:count 0
scalar SingleCell_withSecondaryGnb.masterEnb.pppIf.ppp rcvdPkFromHl:sum(packetBytes) 0
scalar SingleCell_withSecondaryGnb.masterEnb.pppIf.ppp passedUpPk:count 10000
scalar SingleCell_withSecondaryGnb.masterEnb.pppIf.ppp passedUpPk:sum(packetBytes) 1040000
scalar SingleCell_withSecondaryGnb.masterEnb.pppIf.ppp packetDropIncorrectlyReceived:count 0
scalar SingleCell_withSecondaryGnb.masterEnb.pppIf.ppp packetDropIncorrectlyReceived:sum(packetBytes) 0
scalar SingleCell_withSecondaryGnb.masterEnb.pppIf.ppp packetDropInterfaceDown:count 0
scalar SingleCell_withSecondaryGnb.masterEnb.pppIf.ppp packetDropInterfaceDown:sum(packetBytes) 0
scalar SingleCell_withSecondaryGnb.masterEnb.pppIf packetDropInterfaceDown:count 0
scalar SingleCell_withSecondaryGnb.masterEnb.pppIf packetDropInterfaceDown:sum(packetBytes) 0
scalar SingleCell_withSecondaryGnb.masterEnb.pppIf packetDropNoCarrier:count 0
scalar SingleCell_withSecondaryGnb.masterEnb.pppIf packetDropNoCarrier:sum(packetBytes) 0
scalar SingleCell_withSecondaryGnb.masterEnb.x2ppp[0].queue queueLength:last 0
scalar SingleCell_withSecondaryGnb.masterEnb.x2ppp[0].queue queueLength:max 0
scalar SingleCell_withSecondaryGnb.masterEnb.x2ppp[0].queue queueLength:timeavg 0
scalar SingleCell_withSecondaryGnb.masterEnb.x2ppp[0].queue queueBitLength:last 0
scalar SingleCell_withSecondaryGnb.masterEnb.x2ppp[0].queue queueBitLength:max 0
scalar SingleCell_withSecondaryGnb.masterEnb.x2ppp[0].queue queueBitLength:timeavg 0
scalar SingleCell_withSecondaryGnb.masterEnb.x2ppp[0].queue outgoingPackets:count 5004
scalar SingleCell_withSecondaryGnb.masterEnb.x2ppp[0].queue outgoingPacketLengths:sum 4643328
scalar SingleCell_withSecondaryGnb.masterEnb.x2ppp[0].queue incomingPackets:count 5004
scalar SingleCell_withSecondaryGnb.masterEnb.x2ppp[0].queue incomingPacketLengths:sum 4643328
scalar SingleCell_withSecondaryGnb.masterEnb.x2ppp[0].queue droppedPacketsQueueOverflow:count 0
scalar SingleCell_withSecondaryGnb.masterEnb.x2ppp[0].queue droppedPacketLengthsQueueOverflow:sum 0
scalar SingleCell_withSecondaryGnb.masterEnb.x2ppp[0].ppp transmissionState:timeavg 4.923551999999971e-05
scalar SingleCell_withSecondaryGnb.masterEnb.x2ppp[0].ppp rxPkOk:count 4
scalar SingleCell_withSecondaryGnb.masterEnb.x2ppp[0].ppp rxPkOk:sum(packetBytes) 444
scalar SingleCell_withSecondaryGnb.masterEnb.x2ppp[0].ppp txPk:count 5004
scalar SingleCell_withSecondaryGnb.masterEnb.x2ppp[0].ppp txPk:sum(packetBytes) 615444
scalar SingleCell_withSecondaryGnb.masterEnb.x2ppp[0].ppp rcvdPkFromHl:count 5004
scalar SingleCell_withSecondaryGnb.masterEnb.x2ppp[0].ppp rcvdPkFromHl:sum(packetBytes) 580416
scalar SingleCell_withSecondaryGnb.masterEnb.x2ppp[0].ppp passedUpPk:count 4
scalar SingleCell_withSecondaryGnb.masterEnb.x2ppp[0].ppp passedUpPk:sum(packetBytes) 416
scalar SingleCell_withSecondaryGnb.masterEnb.x2ppp[0].ppp packetDropIncorrectlyReceived:count 0
scalar SingleCell_withSecondaryGnb.masterEnb.x2ppp[0].ppp packetDropIncorrectlyReceived:sum(packetBytes) 0
scalar SingleCell_withSecondaryGnb.masterEnb.x2ppp[0].ppp packetDropInterfaceDown:count 0
scalar SingleCell_withSecondaryGnb.masterEnb.x2ppp[0].ppp packetDropInterfaceDown:sum(packetBytes) 0
scalar SingleCell_withSecondaryGnb.masterEnb.x2ppp[0] packetDropInterfaceDown:count 0
scalar SingleCell_withSecondaryGnb.masterEnb.x2ppp[0] packetDropInterfaceDown:sum(packetBytes) 0
scalar SingleCell_withSecondaryGnb.masterEnb.x2ppp[0] packetDropNoCarrier:count 0
scalar SingleCell_withSecondaryGnb.masterEnb.x2ppp[0] packetDropNoCarrier:sum(packetBytes) 0
scalar SingleCell_withSecondaryGnb.masterEnb.pppMEHostIf.queue queueLength:last 0
scalar SingleCell_withSecondaryGnb.masterEnb.pppMEHostIf.queue queueLength:max 0
scalar SingleCell_withSecondaryGnb.masterEnb.pppMEHostIf.queue queueLength:timeavg 0
scalar SingleCell_withSecondaryGnb.masterEnb.pppMEHostIf.queue queueBitLength:last 0
scalar SingleCell_withSecondaryGnb.masterEnb.pppMEHostIf.queue queueBitLength:max 0
scalar SingleCell_withSecondaryGnb.masterEnb.pppMEHostIf.queue queueBitLength:timeavg 0
scalar SingleCell_withSecondaryGnb.masterEnb.pppMEHostIf.queue outgoingPackets:count 0
scalar SingleCell_withSecondaryGnb.masterEnb.pppMEHostIf.queue outgoingPacketLengths:sum 0
scalar SingleCell_withSecondaryGnb.masterEnb.pppMEHostIf.queue incomingPackets:count 0
scalar SingleCell_withSecondaryGnb.masterEnb.pppMEHostIf.queue incomingPacketLengths:sum 0
scalar SingleCell_withSecondaryGnb.masterEnb.pppMEHostIf.queue droppedPacketsQueueOverflow:count 0
scalar SingleCell_withSecondaryGnb.masterEnb.pppMEHostIf.queue droppedPacketLengthsQueueOverflow:sum 0
scalar SingleCell_withSecondaryGnb.masterEnb.pppMEHostIf.ppp transmissionState:timeavg 0
scalar SingleCell_withSecondaryGnb.masterEnb.pppMEHostIf.ppp rxPkOk:count 0
scalar SingleCell_withSecondaryGnb.masterEnb.pppMEHostIf.ppp rxPkOk:sum(packetBytes) 0
scalar SingleCell_withSecondaryGnb.masterEnb.pppMEHostIf.ppp txPk:count 0
scalar SingleCell_withSecondaryGnb.masterEnb.pppMEHostIf.ppp txPk:sum(packetBytes) 0
scalar SingleCell_withSecondaryGnb.masterEnb.pppMEHostIf.ppp rcvdPkFromHl:count 0
scalar SingleCell_withSecondaryGnb.masterEnb.pppMEHostIf.ppp rcvdPkFromHl:sum(packetBytes) 0
scalar SingleCell_withSecondaryGnb.masterEnb.pppMEHostIf.ppp passedUpPk:count 0
scalar SingleCell_withSecondaryGnb.masterEnb.pppMEHostIf.ppp passedUpPk:sum(packetBytes) 0
scalar SingleCell_withSecondaryGnb.masterEnb.pppMEHostIf.ppp packetDropIncorrectlyReceived:count 0
scalar SingleCell_withSecondaryGnb.masterEnb.pppMEHostIf.ppp packetDropIncorrectlyReceived:sum(packetBytes) 0
scalar SingleCell_withSecondaryGnb.masterEnb.pppMEHostIf.ppp packetDropInterfaceDown:count 0
scalar SingleCell_withSecondaryGnb.masterEnb.pppMEHostIf.ppp packetDropInterfaceDown:sum(packetBytes) 0
scalar SingleCell_withSecondaryGnb.masterEnb.pppMEHostIf packetDropInterfaceDown:count 0
scalar SingleCell_withSecondaryGnb.masterEnb.pppMEHostIf packetDropInterfaceDown:sum(packetBytes) 0
scalar SingleCell_withSecondaryGnb.masterEnb.pppMEHostIf packetDropNoCarrier:count 0
scalar SingleCell_withSecondaryGnb.masterEnb.pppMEHostIf packetDropNoCarrier:sum(packetBytes) 0
scalar SingleCell_withSecondaryGnb.masterEnb.ipv4.ip packetDropAddressResolutionFailed:count 0
scalar SingleCell_withSecondaryGnb.masterEnb.ipv4.ip packetDropAddressResolutionFailed:sum(packetBytes) 0
scalar SingleCell_withSecondaryGnb.masterEnb.ipv4.ip packetDropHopLimitReached:count 0
scalar SingleCell_withSecondaryGnb.masterEnb.ipv4.ip packetDropHopLimitReached:sum(packetBytes) 0
scalar SingleCell_withSecondaryGnb.masterEnb.ipv4.ip packetDropForwardingDisabled:count 0
scalar SingleCell_withSecondaryGnb.masterEnb.ipv4.ip packetDropForwardingDisabled:sum(packetBytes) 0
scalar SingleCell_withSecondaryGnb.masterEnb.ipv4.ip packetDropNoInterfaceFound:count 0
scalar SingleCell_withSecondaryGnb.masterEnb.ipv4.ip packetDropNoInterfaceFound:sum(packetBytes) 0
scalar SingleCell_withSecondaryGnb.masterEnb.ipv4.ip packetDropNoRouteFound:count 0
scalar SingleCell_withSecondaryGnb.masterEnb.ipv4.ip packetDropNoRouteFound:sum(packetBytes) 0
scalar SingleCell_withSecondaryGnb.masterEnb.ipv4.ip packetDropUndefined:count 0
scalar SingleCell_withSecondaryGnb.masterEnb.ipv4.ip packetDropUndefined:sum(packetBytes) 0
scalar SingleCell_withSecondaryGnb.masterEnb.ipv4.arp arpResolutionFailed:count 0
scalar SingleCell_withSecondaryGnb.masterEnb.ipv4.arp arpResolutionCompleted:count 0
scalar SingleCell_withSecondaryGnb.masterEnb.ipv4.arp arpResolutionInitiated:count 0
scalar SingleCell_withSecondaryGnb.masterEnb.ipv4.arp arpReplySent:count 0
scalar SingleCell_withSecondaryGnb.masterEnb.ipv4.arp arpReplySent:sum(packetBytes) 0
scalar SingleCell_withSecondaryGnb.masterEnb.ipv4.arp arpRequestSent:count 0
scalar SingleCell_withSecondaryGnb.masterEnb.ipv4.arp arpRequestSent:sum(packetBytes) 0
scalar SingleCell_withSecondaryGnb.masterEnb.udp packetReceived:count 10000
scalar SingleCell_withSecondaryGnb.masterEnb.udp packetReceived:sum(packetBytes) 840000
scalar SingleCell_withSecondaryGnb.masterEnb.udp packetSent:count 5000
scalar SingleCell_withSecondaryGnb.masterEnb.udp packetSent:sum(packetBytes) 480000
scalar SingleCell_withSecondaryGnb.masterEnb.udp passedUpPk:count 10000
scalar SingleCell_withSecondaryGnb.masterEnb.udp droppedPkWrongPort:count 0
scalar SingleCell_withSecondaryGnb.masterEnb.udp droppedPkBadChecksum:count 0
scalar SingleCell_withSecondaryGnb.masterEnb.x2App[0].client packetReceived:count 0
scalar SingleCell_withSecondaryGnb.masterEnb.x2App[0].client packetReceived:sum(packetBytes) 0
scalar SingleCell_withSecondaryGnb.masterEnb.x2App[0].client packetSent:count 0
scalar SingleCell_withSecondaryGnb.masterEnb.x2App[0].client packetSent:sum(packetBytes) 0
scalar SingleCell_withSecondaryGnb.masterEnb.x2App[0].client echoedPk:count 0
scalar SingleCell_withSecondaryGnb.masterEnb.x2App[0].client echoedPk:sum(packetBytes) 0
scalar SingleCell_withSecondaryGnb.masterEnb.x2App[0].server "bytes rcvd" 0
scalar SingleCell_withSecondaryGnb.masterEnb.x2App[0].server throughput -nan
scalar SingleCell_withSecondaryGnb.secondaryGnb.cellularNic.rlcMux rlcCellThroughputD2D:simu5g_rateavg -nan
scalar SingleCell_withSecondaryGnb.secondaryGnb.cellularNic.rlcMux rlcPduThroughputD2D:simu5g_rateavg -nan
scalar SingleCell_withSecondaryGnb.secondaryGnb.cellularNic.rlcMux rlcPduDelayD2D:mean -nan
scalar SingleCell_withSecondaryGnb.secondaryGnb.cellularNic.rlcMux rlcThroughputD2D:simu5g_rateavg -nan
scalar SingleCell_withSecondaryGnb.secondaryGnb.cellularNic.rlcMux rlcDelayD2D:mean -nan
scalar SingleCell_withSecondaryGnb.secondaryGnb.cellularNic.rlcMux rlcCellThroughputUl:simu5g_rateavg -nan
scalar SingleCell_withSecondaryGnb.secondaryGnb.cellularNic.rlcMux rlcCellThroughputDl:simu5g_rateavg 68414.97334748607
scalar SingleCell_withSecondaryGnb.secondaryGnb.cellularNic.rlcMux rlcPduThroughputUl:simu5g_rateavg -nan
scalar SingleCell_withSecondaryGnb.secondaryGnb.cellularNic.rlcMux rlcPduThroughputDl:simu5g_rateavg -nan
scalar SingleCell_withSecondaryGnb.secondaryGnb.cellularNic.rlcMux rlcPduDelayUl:mean -nan
scalar SingleCell_withSecondaryGnb.secondaryGnb.cellularNic.rlcMux rlcPduDelayDl:mean -nan
scalar SingleCell_withSecondaryGnb.secondaryGnb.cellularNic.rlcMux rlcThroughputUl:simu5g_rateavg -nan
scalar SingleCell_withSecondaryGnb.secondaryGnb.cellularNic.rlcMux rlcThroughputDl:simu5g_rateavg -nan
scalar SingleCell_withSecondaryGnb.secondaryGnb.cellularNic.rlcMux rlcDelayUl:mean -nan
scalar SingleCell_withSecondaryGnb.secondaryGnb.cellularNic.rlcMux rlcDelayDl:mean -nan
scalar SingleCell_withSecondaryGnb.secondaryGnb.cellularNic.rlcMux sentPacketToLowerLayer:count 10000
scalar SingleCell_withSecondaryGnb.secondaryGnb.cellularNic.rlcMux sentPacketToLowerLayer:sum(packetBytes) 700000
scalar SingleCell_withSecondaryGnb.secondaryGnb.cellularNic.rlcMux receivedPacketFromLowerLayer:count 0
scalar SingleCell_withSecondaryGnb.secondaryGnb.cellularNic.rlcMux receivedPacketFromLowerLayer:sum(packetBytes) 0
scalar SingleCell_withSecondaryGnb.secondaryGnb.cellularNic.mac avgServedBlocksUl:mean 0
scalar SingleCell_withSecondaryGnb.secondaryGnb.cellularNic.mac avgServedBlocksDl:mean 0.50939999999999996
scalar SingleCell_withSecondaryGnb.secondaryGnb.cellularNic.mac macCellPacketLossD2D:mean -nan
scalar SingleCell_withSecondaryGnb.secondaryGnb.cellularNic.mac macCellThroughputD2D:simu5g_rateavg -nan
scalar SingleCell_withSecondaryGnb.secondaryGnb.cellularNic.mac harqTxAttemptsUl:mean -nan
scalar SingleCell_withSecondaryGnb.secondaryGnb.cellularNic.mac harqTxAttemptsDl:mean -nan
scalar SingleCell_withSecondaryGnb.secondaryGnb.cellularNic.mac harqErrorRate_4th_Ul:mean -nan
scalar SingleCell_withSecondaryGnb.secondaryGnb.cellularNic.mac harqErrorRate_4th_Dl:mean -nan
scalar SingleCell_withSecondaryGnb.secondaryGnb.cellularNic.mac harqErrorRate_3rd_Ul:mean -nan
scalar SingleCell_withSecondaryGnb.secondaryGnb.cellularNic.mac harqErrorRate_3rd_Dl:mean -nan
scalar SingleCell_withSecondaryGnb.secondaryGnb.cellularNic.mac harqErrorRate_2nd_Ul:mean -nan
scalar SingleCell_withSecondaryGnb.secondaryGnb.cellularNic.mac harqErrorRate_2nd_Dl:mean -nan
scalar SingleCell_withSecondaryGnb.secondaryGnb.cellularNic.mac harqErrorRate_1st_Ul:mean -nan
scalar SingleCell_withSecondaryGnb.secondaryGnb.cellularNic.mac harqErrorRate_1st_Dl:mean -nan
scalar SingleCell_withSecondaryGnb.secondaryGnb.cellularNic.mac harqErrorRateUl:mean -nan
scalar SingleCell_withSecondaryGnb.secondaryGnb.cellularNic.mac harqErrorRateDl:mean -nan
scalar SingleCell_withSecondaryGnb.secondaryGnb.cellularNic.mac macCellPacketLossUl:mean -nan
scalar SingleCell_withSecondaryGnb.secondaryGnb.cellularNic.mac macCellPacketLossDl:mean 0
scalar SingleCell_withSecondaryGnb.secondaryGnb.cellularNic.mac macPacketLossUl:mean -nan
scalar SingleCell_withSecondaryGnb.secondaryGnb.cellularNic.mac macPacketLossDl:mean -nan
scalar SingleCell_withSecondaryGnb.secondaryGnb.cellularNic.mac macThroughputUl:simu5g_rateavg -nan
scalar SingleCell_withSecondaryGnb.secondaryGnb.cellularNic.mac macThroughputDl:simu5g_rateavg -nan
scalar SingleCell_withSecondaryGnb.secondaryGnb.cellularNic.mac macDelayUl:mean -nan
scalar SingleCell_withSecondaryGnb.secondaryGnb.cellularNic.mac macDelayDl:mean -nan
scalar SingleCell_withSecondaryGnb.secondaryGnb.cellularNic.mac macCellThroughputUl:simu5g_rateavg -nan
scalar SingleCell_withSecondaryGnb.secondaryGnb.cellularNic.mac macCellThroughputDl:simu5g_rateavg 72381.058758934421
scalar SingleCell_withSecondaryGnb.secondaryGnb.cellularNic.mac sentPacketToLowerLayer:count 5060
scalar SingleCell_withSecondaryGnb.secondaryGnb.cellularNic.mac sentPacketToLowerLayer:sum(packetBytes) 369380
scalar SingleCell_withSecondaryGnb.secondaryGnb.cellularNic.mac sentPacketToUpperLayer:count 5000
scalar SingleCell_withSecondaryGnb.secondaryGnb.cellularNic.mac sentPacketToUpperLayer:sum(packetBytes) 5000
scalar SingleCell_withSecondaryGnb.secondaryGnb.cellularNic.mac receivedPacketFromLowerLayer:count 13398
scalar SingleCell_withSecondaryGnb.secondaryGnb.cellularNic.mac receivedPacketFromLowerLayer:sum(packetBytes) 13398
scalar SingleCell_withSecondaryGnb.secondaryGnb.cellularNic.mac receivedPacketFromUpperLayer:count 10000
scalar SingleCell_withSecondaryGnb.secondaryGnb.cellularNic.mac receivedPacketFromUpperLayer:sum(packetBytes) 700000
scalar SingleCell_withSecondaryGnb.secondaryGnb.cellularNic.mac macBufferOverFlowD2D:mean -nan
scalar SingleCell_withSecondaryGnb.secondaryGnb.cellularNic.mac macBufferOverFlowUl:mean -nan
scalar SingleCell_withSecondaryGnb.secondaryGnb.cellularNic.mac macBufferOverFlowDl:mean -nan
scalar SingleCell_withSecondaryGnb.secondaryGnb.cellularNic.channelModel[0] measuredSinrUl:mean -nan
scalar SingleCell_withSecondaryGnb.secondaryGnb.cellularNic.channelModel[0] measuredSinrDl:mean -nan
scalar SingleCell_withSecondaryGnb.secondaryGnb.cellularNic.channelModel[0] rcvdSinrD2D:mean -nan
scalar SingleCell_withSecondaryGnb.secondaryGnb.cellularNic.channelModel[0] rcvdSinrUl:mean -nan
scalar SingleCell_withSecondaryGnb.secondaryGnb.cellularNic.channelModel[0] rcvdSinrDl:mean -nan
scalar SingleCell_withSecondaryGnb.secondaryGnb.cellularNic packetDropInterfaceDown:count 0
scalar SingleCell_withSecondaryGnb.secondaryGnb.cellularNic packetDropInterfaceDown:sum(packetBytes) 0
scalar SingleCell_withSecondaryGnb.secondaryGnb.cellularNic packetDropNoCarrier:count 0
scalar SingleCell_withSecondaryGnb.secondaryGnb.cellularNic packetDropNoCarrier:sum(packetBytes) 0
scalar SingleCell_withSecondaryGnb.secondaryGnb.pppIf.queue queueLength:last 0
scalar SingleCell_withSecondaryGnb.secondaryGnb.pppIf.queue queueLength:max 0
scalar SingleCell_withSecondaryGnb.secondaryGnb.pppIf.queue queueLength:timeavg 0
scalar SingleCell_withSecondaryGnb.secondaryGnb.pppIf.queue queueBitLength:last 0
scalar SingleCell_withSecondaryGnb.secondaryGnb.pppIf.queue queueBitLength:max 0
scalar SingleCell_withSecondaryGnb.secondaryGnb.pppIf.queue queueBitLength:timeavg 0
scalar SingleCell_withSecondaryGnb.secondaryGnb.pppIf.queue outgoingPackets:count 0
scalar SingleCell_withSecondaryGnb.secondaryGnb.pppIf.queue outgoingPacketLengths:sum 0
scalar SingleCell_withSecondaryGnb.secondaryGnb.pppIf.queue incomingPackets:count 0
scalar SingleCell_withSecondaryGnb.secondaryGnb.pppIf.queue incomingPacketLengths:sum 0
scalar SingleCell_withSecondaryGnb.secondaryGnb.pppIf.queue droppedPacketsQueueOverflow:count 0
scalar SingleCell_withSecondaryGnb.secondaryGnb.pppIf.queue droppedPacketLengthsQueueOverflow:sum 0
scalar SingleCell_withSecondaryGnb.secondaryGnb.pppIf.ppp transmissionState:timeavg 0
scalar SingleCell_withSecondaryGnb.secondaryGnb.pppIf.ppp rxPkOk:count 0
scalar SingleCell_withSecondaryGnb.secondaryGnb.pppIf.ppp rxPkOk:sum(packetBytes) 0
scalar SingleCell_withSecondaryGnb.secondaryGnb.pppIf.ppp txPk:count 0
scalar SingleCell_withSecondaryGnb.secondaryGnb.pppIf.ppp txPk:sum(packetBytes) 0
scalar SingleCell_withSecondaryGnb.secondaryGnb.pppIf.ppp rcvdPkFromHl:count 0
scalar SingleCell_withSecondaryGnb.secondaryGnb.pppIf.ppp rcvdPkFromHl:sum(packetBytes) 0
scalar SingleCell_withSecondaryGnb.secondaryGnb.pppIf.ppp passedUpPk:count 0
scalar SingleCell_withSecondaryGnb.secondaryGnb.pppIf.ppp passedUpPk:sum(packetBytes) 0
scalar SingleCell_withSecondaryGnb.secondaryGnb.pppIf.ppp packetDropIncorrectlyReceived:count 0
scalar SingleCell_withSecondaryGnb.secondaryGnb.pppIf.ppp packetDropIncorrectlyReceived:sum(packetBytes) 0
scalar SingleCell_withSecondaryGnb.secondaryGnb.pppIf.ppp packetDropInterfaceDown:count 0
scalar SingleCell_withSecondaryGnb.secondaryGnb.pppIf.ppp packetDropInterfaceDown:sum(packetBytes) 0
scalar SingleCell_withSecondaryGnb.secondaryGnb.pppIf packetDropInterfaceDown:count 0
scalar SingleCell_withSecondaryGnb.secondaryGnb.pppIf packetDropInterfaceDown:sum(packetBytes) 0
scalar SingleCell_withSecondaryGnb.secondaryGnb.pppIf packetDropNoCarrier:count 0
scalar SingleCell_withSecondaryGnb.secondaryGnb.pppIf packetDropNoCarrier:sum(packetBytes) 0
scalar SingleCell_withSecondaryGnb.secondaryGnb.x2ppp[0].queue queueLength:last 0
scalar SingleCell_withSecondaryGnb.secondaryGnb.x2ppp[0].queue queueLength:max 0
scalar SingleCell_withSecondaryGnb.secondaryGnb.x2ppp[0].queue queueLength:timeavg 0
scalar SingleCell_withSecondaryGnb.secondaryGnb.x2ppp[0].queue queueBitLength:last 0
scalar SingleCell_withSecondaryGnb.secondaryGnb.x2ppp[0].queue queueBitLength:max 0
scalar SingleCell_withSecondaryGnb.secondaryGnb.x2ppp[0].queue queueBitLength:timeavg 0
scalar SingleCell_withSecondaryGnb.secondaryGnb.x2ppp[0].queue outgoingPackets:count 4
scalar SingleCell_withSecondaryGnb.secondaryGnb.x2ppp[0].queue outgoingPacketLengths:sum 3328
scalar SingleCell_withSecondaryGnb.secondaryGnb.x2ppp[0].queue incomingPackets:count 4
scalar SingleCell_withSecondaryGnb.secondaryGnb.x2ppp[0].queue incomingPacketLengths:sum 3328
scalar SingleCell_withSecondaryGnb.secondaryGnb.x2ppp[0].queue droppedPacketsQueueOverflow:count 0
scalar SingleCell_withSecondaryGnb.secondaryGnb.x2ppp[0].queue droppedPacketLengthsQueueOverflow:sum 0
scalar SingleCell_withSecondaryGnb.secondaryGnb.x2ppp[0].ppp transmissionState:timeavg 3.5519999999999996e-08
scalar SingleCell_withSecondaryGnb.secondaryGnb.x2ppp[0].ppp rxPkOk:count 5004
scalar SingleCell_withSecondaryGnb.secondaryGnb.x2ppp[0].ppp rxPkOk:sum(packetBytes) 615444
scalar SingleCell_withSecondaryGnb.secondaryGnb.x2ppp[0].ppp txPk:count 4
scalar SingleCell_withSecondaryGnb.secondaryGnb.x2ppp[0].ppp txPk:sum(packetBytes) 444
scalar SingleCell_withSecondaryGnb.secondaryGnb.x2ppp[0].ppp rcvdPkFromHl:count 4
scalar SingleCell_withSecondaryGnb.secondaryGnb.x2ppp[0].ppp rcvdPkFromHl:sum(packetBytes) 416
scalar SingleCell_withSecondaryGnb.secondaryGnb.x2ppp[0].ppp passedUpPk:count 5004
scalar SingleCell_withSecondaryGnb.secondaryGnb.x2ppp[0].ppp passedUpPk:sum(packetBytes) 580416
scalar SingleCell_withSecondaryGnb.secondaryGnb.x2ppp[0].ppp packetDropIncorrectlyReceived:count 0
scalar SingleCell_withSecondaryGnb.secondaryGnb.x2ppp[0].ppp packetDropIncorrectlyReceived:sum(packetBytes) 0
scalar SingleCell_withSecondaryGnb.secondaryGnb.x2ppp[0].ppp packetDropInterfaceDown:count 0
scalar SingleCell_withSecondaryGnb.secondaryGnb.x2ppp[0].ppp packetDropInterfaceDown:sum(packetBytes) 0
scalar SingleCell_withSecondaryGnb.secondaryGnb.x2ppp[0] packetDropInterfaceDown:count 0
scalar SingleCell_withSecondaryGnb.secondaryGnb.x2ppp[0] packetDropInterfaceDown:sum(packetBytes) 0
scalar SingleCell_withSecondaryGnb.secondaryGnb.x2ppp[0] packetDropNoCarrier:count 0
scalar SingleCell_withSecondaryGnb.secondaryGnb.x2ppp[0] packetDropNoCarrier:sum(packetBytes) 0
scalar SingleCell_withSecondaryGnb.secondaryGnb.pppMEHostIf.queue queueLength:last 0
scalar SingleCell_withSecondaryGnb.secondaryGnb.pppMEHostIf.queue queueLength:max 0
scalar SingleCell_withSecondaryGnb.secondaryGnb.pppMEHostIf.queue queueLength:timeavg 0
scalar SingleCell_withSecondaryGnb.secondaryGnb.pppMEHostIf.queue queueBitLength:last 0
scalar SingleCell_withSecondaryGnb.secondaryGnb.pppMEHostIf.queue queueBitLength:max 0
scalar SingleCell_withSecondaryGnb.secondaryGnb.pppMEHostIf.queue queueBitLength:timeavg 0
scalar SingleCell_withSecondaryGnb.secondaryGnb.pppMEHostIf.queue outgoingPackets:count 0
scalar SingleCell_withSecondaryGnb.secondaryGnb.pppMEHostIf.queue outgoingPacketLengths:sum 0
scalar SingleCell_withSecondaryGnb.secondaryGnb.pppMEHostIf.queue incomingPackets:count 0
scalar SingleCell_withSecondaryGnb.secondaryGnb.pppMEHostIf.queue incomingPacketLengths:sum 0
scalar SingleCell_withSecondaryGnb.secondaryGnb.pppMEHostIf.queue droppedPacketsQueueOverflow:count 0
scalar SingleCell_withSecondaryGnb.secondaryGnb.pppMEHostIf.queue droppedPacketLengthsQueueOverflow:sum 0
scalar SingleCell_withSecondaryGnb.secondaryGnb.pppMEHostIf.ppp transmissionState:timeavg 0
scalar SingleCell_withSecondaryGnb.secondaryGnb.pppMEHostIf.ppp rxPkOk:count 0
scalar SingleCell_withSecondaryGnb.secondaryGnb.pppMEHostIf.ppp rxPkOk:sum(packetBytes) 0
scalar SingleCell_withSecondaryGnb.secondaryGnb.pppMEHostIf.ppp txPk:count 0
scalar SingleCell_withSecondaryGnb.secondaryGnb.pppMEHostIf.ppp txPk:sum(packetBytes) 0
scalar SingleCell_withSecondaryGnb.secondaryGnb.pppMEHostIf.ppp rcvdPkFromHl:count 0
scalar SingleCell_withSecondaryGnb.secondaryGnb.pppMEHostIf.ppp rcvdPkFromHl:sum(packetBytes) 0
scalar SingleCell_withSecondaryGnb.secondaryGnb.pppMEHostIf.ppp passedUpPk:count 0
scalar SingleCell_withSecondaryGnb.secondaryGnb.pppMEHostIf.ppp passedUpPk:sum(packetBytes) 0
scalar SingleCell_withSecondaryGnb.secondaryGnb.pppMEHostIf.ppp packetDropIncorrectlyReceived:count 0
scalar SingleCell_withSecondaryGnb.secondaryGnb.pppMEHostIf.ppp packetDropIncorrectlyReceived:sum(packetBytes) 0
scalar SingleCell_withSecondaryGnb.secondaryGnb.pppMEHostIf.ppp packetDropInterfaceDown:count 0
scalar SingleCell_withSecondaryGnb.secondaryGnb.pppMEHostIf.ppp packetDropInterfaceDown:sum(packetBytes) 0
scalar SingleCell_withSecondaryGnb.secondaryGnb.pppMEHostIf packetDropInterfaceDown:count 0
scalar SingleCell_withSecondaryGnb.secondaryGnb.pppMEHostIf packetDropInterfaceDown:sum(packetBytes) 0
scalar SingleCell_withSecondaryGnb.secondaryGnb.pppMEHostIf packetDropNoCarrier:count 0
scalar SingleCell_withSecondaryGnb.secondaryGnb.pppMEHostIf packetDropNoCarrier:sum(packetBytes) 0
scalar SingleCell_withSecondaryGnb.secondaryGnb.ipv4.ip packetDropAddressResolutionFailed:count 0
scalar SingleCell_withSecondaryGnb.secondaryGnb.ipv4.ip packetDropAddressResolutionFailed:sum(packetBytes) 0
scalar SingleCell_withSecondaryGnb.secondaryGnb.ipv4.ip packetDropHopLimitReached:count 0
scalar SingleCell_withSecondaryGnb.secondaryGnb.ipv4.ip packetDropHopLimitReached:sum(packetBytes) 0
scalar SingleCell_withSecondaryGnb.secondaryGnb.ipv4.ip packetDropForwardingDisabled:count 0
scalar SingleCell_withSecondaryGnb.secondaryGnb.ipv4.ip packetDropForwardingDisabled:sum(packetBytes) 0
scalar SingleCell_withSecondaryGnb.secondaryGnb.ipv4.ip packetDropNoInterfaceFound:count 0
scalar SingleCell_withSecondaryGnb.secondaryGnb.ipv4.ip packetDropNoInterfaceFound:sum(packetBytes) 0
scalar SingleCell_withSecondaryGnb.secondaryGnb.ipv4.ip packetDropNoRouteFound:count 0
scalar SingleCell_withSecondaryGnb.secondaryGnb.ipv4.ip packetDropNoRouteFound:sum(packetBytes) 0
scalar SingleCell_withSecondaryGnb.secondaryGnb.ipv4.ip packetDropUndefined:count 0
scalar SingleCell_withSecondaryGnb.secondaryGnb.ipv4.ip packetDropUndefined:sum(packetBytes) 0
scalar SingleCell_withSecondaryGnb.secondaryGnb.ipv4.arp arpResolutionFailed:count 0
scalar SingleCell_withSecondaryGnb.secondaryGnb.ipv4.arp arpResolutionCompleted:count 0
scalar SingleCell_withSecondaryGnb.secondaryGnb.ipv4.arp arpResolutionInitiated:count 0
scalar SingleCell_withSecondaryGnb.secondaryGnb.ipv4.arp arpReplySent:count 0
scalar SingleCell_withSecondaryGnb.secondaryGnb.ipv4.arp arpReplySent:sum(packetBytes) 0
scalar SingleCell_withSecondaryGnb.secondaryGnb.ipv4.arp arpRequestSent:count 0
scalar SingleCell_withSecondaryGnb.secondaryGnb.ipv4.arp arpRequestSent:sum(packetBytes) 0
scalar SingleCell_withSecondaryGnb.secondaryGnb.udp packetReceived:count 5000
scalar SingleCell_withSecondaryGnb.secondaryGnb.udp packetReceived:sum(packetBytes) 480000
scalar SingleCell_withSecondaryGnb.secondaryGnb.udp packetSent:count 0
scalar SingleCell_withSecondaryGnb.secondaryGnb.udp packetSent:sum(packetBytes) 0
scalar SingleCell_withSecondaryGnb.secondaryGnb.udp passedUpPk:count 5000
scalar SingleCell_withSecondaryGnb.secondaryGnb.udp droppedPkWrongPort:count 0
scalar SingleCell_withSecondaryGnb.secondaryGnb.udp droppedPkBadChecksum:count 0
scalar SingleCell_withSecondaryGnb.secondaryGnb.x2App[0].client packetReceived:count 0
scalar SingleCell_withSecondaryGnb.secondaryGnb.x2App[0].client packetReceived:sum(packetBytes) 0
scalar SingleCell_withSecondaryGnb.secondaryGnb.x2App[0].client packetSent:count 0
scalar SingleCell_withSecondaryGnb.secondaryGnb.x2App[0].client packetSent:sum(packetBytes) 0
scalar SingleCell_withSecondaryGnb.secondaryGnb.x2App[0].client echoedPk:count 0
scalar SingleCell_withSecondaryGnb.secondaryGnb.x2App[0].client echoedPk:sum(packetBytes) 0
scalar SingleCell_withSecondaryGnb.secondaryGnb.x2App[0].server "bytes rcvd" 0
scalar SingleCell_withSecondaryGnb.secondaryGnb.x2App[0].server throughput -nan
scalar SingleCell_withSecondaryGnb.ue[0].lo[0].lo rcvdPkFromHl:count 0
scalar SingleCell_withSecondaryGnb.ue[0].lo[0].lo rcvdPkFromHl:sum(packetBytes) 0
scalar SingleCell_withSecondaryGnb.ue[0].lo[0].lo passedUpPk:count 0
scalar SingleCell_withSecondaryGnb.ue[0].lo[0].lo passedUpPk:sum(packetBytes) 0
scalar SingleCell_withSecondaryGnb.ue[0].lo[0] packetDropInterfaceDown:count 0
scalar SingleCell_withSecondaryGnb.ue[0].lo[0] packetDropInterfaceDown:sum(packetBytes) 0
scalar SingleCell_withSecondaryGnb.ue[0].lo[0] packetDropNoCarrier:count 0
scalar SingleCell_withSecondaryGnb.ue[0].lo[0] packetDropNoCarrier:sum(packetBytes) 0
scalar SingleCell_withSecondaryGnb.ue[0].cellularNic.rlcMux rlcCellThroughputD2D:simu5g_rateavg -nan
scalar SingleCell_withSecondaryGnb.ue[0].cellularNic.rlcMux rlcPduThroughputD2D:simu5g_rateavg -nan
scalar SingleCell_withSecondaryGnb.ue[0].cellularNic.rlcMux rlcPduDelayD2D:mean -nan
scalar SingleCell_withSecondaryGnb.ue[0].cellularNic.rlcMux rlcThroughputD2D:simu5g_rateavg -nan
scalar SingleCell_withSecondaryGnb.ue[0].cellularNic.rlcMux rlcDelayD2D:mean -nan
scalar SingleCell_withSecondaryGnb.ue[0].cellularNic.rlcMux rlcCellThroughputUl:simu5g_rateavg -nan
scalar SingleCell_withSecondaryGnb.ue[0].cellularNic.rlcMux rlcCellThroughputDl:simu5g_rateavg -nan
scalar SingleCell_withSecondaryGnb.ue[0].cellularNic.rlcMux rlcPduThroughputUl:simu5g_rateavg -nan
scalar SingleCell_withSecondaryGnb.ue[0].cellularNic.rlcMux rlcPduThroughputDl:simu5g_rateavg 0
scalar SingleCell_withSecondaryGnb.ue[0].cellularNic.rlcMux rlcPduDelayUl:mean -nan
scalar SingleCell_withSecondaryGnb.ue[0].cellularNic.rlcMux rlcPduDelayDl:mean 0.0040000000000000027
scalar SingleCell_withSecondaryGnb.ue[0].cellularNic.rlcMux rlcThroughputUl:simu5g_rateavg -nan
scalar SingleCell_withSecondaryGnb.ue[0].cellularNic.rlcMux rlcThroughputDl:simu5g_rateavg 3443.0550707075827
scalar SingleCell_withSecondaryGnb.ue[0].cellularNic.rlcMux rlcDelayUl:mean -nan
scalar SingleCell_withSecondaryGnb.ue[0].cellularNic.rlcMux rlcDelayDl:mean 0.004884456457999964
scalar SingleCell_withSecondaryGnb.ue[0].cellularNic.rlcMux sentPacketToLowerLayer:count 0
scalar SingleCell_withSecondaryGnb.ue[0].cellularNic.rlcMux sentPacketToLowerLayer:sum(packetBytes) 0
scalar SingleCell_withSecondaryGnb.ue[0].cellularNic.rlcMux receivedPacketFromLowerLayer:count 499
scalar SingleCell_withSecondaryGnb.ue[0].cellularNic.rlcMux receivedPacketFromLowerLayer:sum(packetBytes) 35429
scalar SingleCell_withSecondaryGnb.ue[0].cellularNic.mac harqErrorRate_4th_D2D:mean -nan
scalar SingleCell_withSecondaryGnb.ue[0].cellularNic.mac harqErrorRate_3rd_D2D:mean -nan
scalar SingleCell_withSecondaryGnb.ue[0].cellularNic.mac harqErrorRate_2nd_D2D:mean -nan
scalar SingleCell_withSecondaryGnb.ue[0].cellularNic.mac harqErrorRate_1st_D2D:mean -nan
scalar SingleCell_withSecondaryGnb.ue[0].cellularNic.mac harqErrorRateD2D:mean -nan
scalar SingleCell_withSecondaryGnb.ue[0].cellularNic.mac macPacketLossD2D:mean -nan
scalar SingleCell_withSecondaryGnb.ue[0].cellularNic.mac macDelayD2D:mean -nan
scalar SingleCell_withSecondaryGnb.ue[0].cellularNic.mac macThroughputD2D:simu5g_rateavg -nan
scalar SingleCell_withSecondaryGnb.ue[0].cellularNic.mac harqTxAttemptsUl:mean -nan
scalar SingleCell_withSecondaryGnb.ue[0].cellularNic.mac harqTxAttemptsDl:mean 1
scalar SingleCell_withSecondaryGnb.ue[0].cellularNic.mac harqErrorRate_4th_Ul:mean -nan
scalar SingleCell_withSecondaryGnb.ue[0].cellularNic.mac harqErrorRate_4th_Dl:mean -nan
scalar SingleCell_withSecondaryGnb.ue[0].cellularNic.mac harqErrorRate_3rd_Ul:mean -nan
scalar SingleCell_withSecondaryGnb.ue[0].cellularNic.mac harqErrorRate_3rd_Dl:mean -nan
scalar SingleCell_withSecondaryGnb.ue[0].cellularNic.mac harqErrorRate_2nd_Ul:mean -nan
scalar SingleCell_withSecondaryGnb.ue[0].cellularNic.mac harqErrorRate_2nd_Dl:mean -nan
scalar SingleCell_withSecondaryGnb.ue[0].cellularNic.mac harqErrorRate_1st_Ul:mean -nan
scalar SingleCell_withSecondaryGnb.ue[0].cellularNic.mac harqErrorRate_1st_Dl:mean 0
scalar SingleCell_withSecondaryGnb.ue[0].cellularNic.mac harqErrorRateUl:mean -nan
scalar SingleCell_withSecondaryGnb.ue[0].cellularNic.mac harqErrorRateDl:mean 0
scalar SingleCell_withSecondaryGnb.ue[0].cellularNic.mac macCellPacketLossUl:mean -nan
scalar SingleCell_withSecondaryGnb.ue[0].cellularNic.mac macCellPacketLossDl:mean -nan
scalar SingleCell_withSecondaryGnb.ue[0].cellularNic.mac macPacketLossUl:mean -nan
scalar SingleCell_withSecondaryGnb.ue[0].cellularNic.mac macPacketLossDl:mean 0
scalar SingleCell_withSecondaryGnb.ue[0].cellularNic.mac macThroughputUl:simu5g_rateavg -nan
scalar SingleCell_withSecondaryGnb.ue[0].cellularNic.mac macThroughputDl:simu5g_rateavg 3642.6524661109179
scalar SingleCell_withSecondaryGnb.ue[0].cellularNic.mac macDelayUl:mean -nan
scalar SingleCell_withSecondaryGnb.ue[0].cellularNic.mac macDelayDl:mean 0.0040000000000000027
scalar SingleCell_withSecondaryGnb.ue[0].cellularNic.mac macCellThroughputUl:simu5g_rateavg -nan
scalar SingleCell_withSecondaryGnb.ue[0].cellularNic.mac macCellThroughputDl:simu5g_rateavg -nan
scalar SingleCell_withSecondaryGnb.ue[0].cellularNic.mac rcvdD2DModeSwitchNotification:count 0
scalar SingleCell_withSecondaryGnb.ue[0].cellularNic.mac sentPacketToLowerLayer:count 499
scalar SingleCell_withSecondaryGnb.ue[0].cellularNic.mac sentPacketToLowerLayer:sum(packetBytes) 499
scalar SingleCell_withSecondaryGnb.ue[0].cellularNic.mac sentPacketToUpperLayer:count 499
scalar SingleCell_withSecondaryGnb.ue[0].cellularNic.mac sentPacketToUpperLayer:sum(packetBytes) 35429
scalar SingleCell_withSecondaryGnb.ue[0].cellularNic.mac receivedPacketFromLowerLayer:count 500
scalar SingleCell_withSecondaryGnb.ue[0].cellularNic.mac receivedPacketFromLowerLayer:sum(packetBytes) 36500
scalar SingleCell_withSecondaryGnb.ue[0].cellularNic.mac receivedPacketFromUpperLayer:count 0
scalar SingleCell_withSecondaryGnb.ue[0].cellularNic.mac receivedPacketFromUpperLayer:sum(packetBytes) 0
scalar SingleCell_withSecondaryGnb.ue[0].cellularNic.mac macBufferOverFlowD2D:mean -nan
scalar SingleCell_withSecondaryGnb.ue[0].cellularNic.mac macBufferOverFlowUl:mean -nan
scalar SingleCell_withSecondaryGnb.ue[0].cellularNic.mac macBufferOverFlowDl:mean -nan
scalar SingleCell_withSecondaryGnb.ue[0].cellularNic.phy distance:mean 86.012229342970926
scalar SingleCell_withSecondaryGnb.ue[0].cellularNic.phy averageCqiD2D:mean -nan
scalar SingleCell_withSecondaryGnb.ue[0].cellularNic.phy averageCqiUl:mean -nan
scalar SingleCell_withSecondaryGnb.ue[0].cellularNic.phy averageCqiUl:count 0
scalar SingleCell_withSecondaryGnb.ue[0].cellularNic.phy averageCqiDl:mean 14.996
scalar SingleCell_withSecondaryGnb.ue[0].cellularNic.phy averageCqiDl:count 500
scalar SingleCell_withSecondaryGnb.ue[0].cellularNic.channelModel[0] measuredSinrUl:mean 47.404502777768883
scalar SingleCell_withSecondaryGnb.ue[0].cellularNic.channelModel[0] measuredSinrDl:mean 54.459075276077357
scalar SingleCell_withSecondaryGnb.ue[0].cellularNic.channelModel[0] rcvdSinrD2D:mean -nan
scalar SingleCell_withSecondaryGnb.ue[0].cellularNic.channelModel[0] rcvdSinrUl:mean -nan
scalar SingleCell_withSecondaryGnb.ue[0].cellularNic.channelModel[0] rcvdSinrDl:mean 56.302540629688671
scalar SingleCell_withSecondaryGnb.ue[0].cellularNic.nrRlcMux rlcCellThroughputD2D:simu5g_rateavg -nan
scalar SingleCell_withSecondaryGnb.ue[0].cellularNic.nrRlcMux rlcPduThroughputD2D:simu5g_rateavg -nan
scalar SingleCell_withSecondaryGnb.ue[0].cellularNic.nrRlcMux rlcPduDelayD2D:mean -nan
scalar SingleCell_withSecondaryGnb.ue[0].cellularNic.nrRlcMux rlcThroughputD2D:simu5g_rateavg -nan
scalar SingleCell_withSecondaryGnb.ue[0].cellularNic.nrRlcMux rlcDelayD2D:mean -nan
scalar SingleCell_withSecondaryGnb.ue[0].cellularNic.nrRlcMux rlcCellThroughputUl:simu5g_rateavg -nan
scalar SingleCell_withSecondaryGnb.ue[0].cellularNic.nrRlcMux rlcCellThroughputDl:simu5g_rateavg -nan
scalar SingleCell_withSecondaryGnb.ue[0].cellularNic.nrRlcMux rlcPduThroughputUl:simu5g_rateavg -nan
scalar SingleCell_withSecondaryGnb.ue[0].cellularNic.nrRlcMux rlcPduThroughputDl:simu5g_rateavg 0
scalar SingleCell_withSecondaryGnb.ue[0].cellularNic.nrRlcMux rlcPduDelayUl:mean -nan
scalar SingleCell_withSecondaryGnb.ue[0].cellularNic.nrRlcMux rlcPduDelayDl:mean 0.0040840000000000034
scalar SingleCell_withSecondaryGnb.ue[0].cellularNic.nrRlcMux rlcThroughputUl:simu5g_rateavg -nan
scalar SingleCell_withSecondaryGnb.ue[0].cellularNic.nrRlcMux rlcThroughputDl:simu5g_rateavg 3454.5883915189306
scalar SingleCell_withSecondaryGnb.ue[0].cellularNic.nrRlcMux rlcDelayUl:mean -nan
scalar SingleCell_withSecondaryGnb.ue[0].cellularNic.nrRlcMux rlcDelayDl:mean 0.0050545930920000547
scalar SingleCell_withSecondaryGnb.ue[0].cellularNic.nrRlcMux sentPacketToLowerLayer:count 0
scalar SingleCell_withSecondaryGnb.ue[0].cellularNic.nrRlcMux sentPacketToLowerLayer:sum(packetBytes) 0
scalar SingleCell_withSecondaryGnb.ue[0].cellularNic.nrRlcMux receivedPacketFromLowerLayer:count 500
scalar SingleCell_withSecondaryGnb.ue[0].cellularNic.nrRlcMux receivedPacketFromLowerLayer:sum(packetBytes) 35500
scalar SingleCell_withSecondaryGnb.ue[0].cellularNic.nrMac harqErrorRate_4th_D2D:mean -nan
scalar SingleCell_withSecondaryGnb.ue[0].cellularNic.nrMac harqErrorRate_3rd_D2D:mean -nan
scalar SingleCell_withSecondaryGnb.ue[0].cellularNic.nrMac harqErrorRate_2nd_D2D:mean -nan
scalar SingleCell_withSecondaryGnb.ue[0].cellularNic.nrMac harqErrorRate_1st_D2D:mean -nan
scalar SingleCell_withSecondaryGnb.ue[0].cellularNic.nrMac harqErrorRateD2D:mean -nan
scalar SingleCell_withSecondaryGnb.ue[0].cellularNic.nrMac macPacketLossD2D:mean -nan
scalar SingleCell_withSecondaryGnb.ue[0].cellularNic.nrMac macDelayD2D:mean -nan
scalar SingleCell_withSecondaryGnb.ue[0].cellularNic.nrMac macThroughputD2D:simu5g_rateavg -nan
scalar SingleCell_withSecondaryGnb.ue[0].cellularNic.nrMac harqTxAttemptsUl:mean -nan
scalar SingleCell_withSecondaryGnb.ue[0].cellularNic.nrMac harqTxAttemptsDl:mean 1.014
scalar SingleCell_withSecondaryGnb.ue[0].cellularNic.nrMac harqErrorRate_4th_Ul:mean -nan
scalar SingleCell_withSecondaryGnb.ue[0].cellularNic.nrMac harqErrorRate_4th_Dl:mean -nan
scalar SingleCell_withSecondaryGnb.ue[0].cellularNic.nrMac harqErrorRate_3rd_Ul:mean -nan
scalar SingleCell_withSecondaryGnb.ue[0].cellularNic.nrMac harqErrorRate_3rd_Dl:mean -nan
scalar SingleCell_withSecondaryGnb.ue[0].cellularNic.nrMac harqErrorRate_2nd_Ul:mean -nan
scalar SingleCell_withSecondaryGnb.ue[0].cellularNic.nrMac harqErrorRate_2nd_Dl:mean 0
scalar SingleCell_withSecondaryGnb.ue[0].cellularNic.nrMac harqErrorRate_1st_Ul:mean -nan
scalar SingleCell_withSecondaryGnb.ue[0].cellularNic.nrMac harqErrorRate_1st_Dl:mean 0.014
scalar SingleCell_withSecondaryGnb.ue[0].cellularNic.nrMac harqErrorRateUl:mean -nan
scalar SingleCell_withSecondaryGnb.ue[0].cellularNic.nrMac harqErrorRateDl:mean 0.013806706114398421
scalar SingleCell_withSecondaryGnb.ue[0].cellularNic.nrMac macCellPacketLossUl:mean -nan
scalar SingleCell_withSecondaryGnb.ue[0].cellularNic.nrMac macCellPacketLossDl:mean -nan
scalar SingleCell_withSecondaryGnb.ue[0].cellularNic.nrMac macPacketLossUl:mean -nan
scalar SingleCell_withSecondaryGnb.ue[0].cellularNic.nrMac macPacketLossDl:mean 0
scalar SingleCell_withSecondaryGnb.ue[0].cellularNic.nrMac macThroughputUl:simu5g_rateavg -nan
scalar SingleCell_withSecondaryGnb.ue[0].cellularNic.nrMac macThroughputDl:simu5g_rateavg 3654.8543852301746
scalar SingleCell_withSecondaryGnb.ue[0].cellularNic.nrMac macDelayUl:mean -nan
scalar SingleCell_withSecondaryGnb.ue[0].cellularNic.nrMac macDelayDl:mean 0.0040840000000000034
scalar SingleCell_withSecondaryGnb.ue[0].cellularNic.nrMac macCellThroughputUl:simu5g_rateavg -nan
scalar SingleCell_withSecondaryGnb.ue[0].cellularNic.nrMac macCellThroughputDl:simu5g_rateavg -nan
scalar SingleCell_withSecondaryGnb.ue[0].cellularNic.nrMac rcvdD2DModeSwitchNotification:count 0
scalar SingleCell_withSecondaryGnb.ue[0].cellularNic.nrMac sentPacketToLowerLayer:count 507
scalar SingleCell_withSecondaryGnb.ue[0].cellularNic.nrMac sentPacketToLowerLayer:sum(packetBytes) 507
scalar SingleCell_withSecondaryGnb.ue[0].cellularNic.nrMac sentPacketToUpperLayer:count 500
scalar SingleCell_withSecondaryGnb.ue[0].cellularNic.nrMac sentPacketToUpperLayer:sum(packetBytes) 35500
scalar SingleCell_withSecondaryGnb.ue[0].cellularNic.nrMac receivedPacketFromLowerLayer:count 507
scalar SingleCell_withSecondaryGnb.ue[0].cellularNic.nrMac receivedPacketFromLowerLayer:sum(packetBytes) 37011
scalar SingleCell_withSecondaryGnb.ue[0].cellularNic.nrMac receivedPacketFromUpperLayer:count 0
scalar SingleCell_withSecondaryGnb.ue[0].cellularNic.nrMac receivedPacketFromUpperLayer:sum(packetBytes) 0
scalar SingleCell_withSecondaryGnb.ue[0].cellularNic.nrMac macBufferOverFlowD2D:mean -nan
scalar SingleCell_withSecondaryGnb.ue[0].cellularNic.nrMac macBufferOverFlowUl:mean -nan
scalar SingleCell_withSecondaryGnb.ue[0].cellularNic.nrMac macBufferOverFlowDl:mean -nan
scalar SingleCell_withSecondaryGnb.ue[0].cellularNic.nrPhy distance:mean 221.73215612013743
scalar SingleCell_withSecondaryGnb.ue[0].cellularNic.nrPhy averageCqiD2D:mean -nan
scalar SingleCell_withSecondaryGnb.ue[0].cellularNic.nrPhy averageCqiUl:mean -nan
scalar SingleCell_withSecondaryGnb.ue[0].cellularNic.nrPhy averageCqiUl:count 0
scalar SingleCell_withSecondaryGnb.ue[0].cellularNic.nrPhy averageCqiDl:mean 12.992110453648916
scalar SingleCell_withSecondaryGnb.ue[0].cellularNic.nrPhy averageCqiDl:count 507
scalar SingleCell_withSecondaryGnb.ue[0].cellularNic.nrChannelModel[0] measuredSinrUl:mean 17.932209354625634
scalar SingleCell_withSecondaryGnb.ue[0].cellularNic.nrChannelModel[0] measuredSinrDl:mean 26.921810010238357
scalar SingleCell_withSecondaryGnb.ue[0].cellularNic.nrChannelModel[0] rcvdSinrD2D:mean -nan
scalar SingleCell_withSecondaryGnb.ue[0].cellularNic.nrChannelModel[0] rcvdSinrUl:mean -nan
scalar SingleCell_withSecondaryGnb.ue[0].cellularNic.nrChannelModel[0] rcvdSinrDl:mean 31.110550007380692
scalar SingleCell_withSecondaryGnb.ue[0].cellularNic packetDropInterfaceDown:count 0
scalar SingleCell_withSecondaryGnb.ue[0].cellularNic packetDropInterfaceDown:sum(packetBytes) 0
scalar SingleCell_withSecondaryGnb.ue[0].cellularNic packetDropNoCarrier:count 0
scalar SingleCell_withSecondaryGnb.ue[0].cellularNic packetDropNoCarrier:sum(packetBytes) 0
scalar SingleCell_withSecondaryGnb.ue[0].encap pauseSent:count 0
scalar SingleCell_withSecondaryGnb.ue[0].encap pauseSent:sum 0
scalar SingleCell_withSecondaryGnb.ue[0].encap decapPk:count 0
scalar SingleCell_withSecondaryGnb.ue[0].encap decapPk:sum(packetBytes) 0
scalar SingleCell_withSecondaryGnb.ue[0].encap encapPk:count 0
scalar SingleCell_withSecondaryGnb.ue[0].encap encapPk:sum(packetBytes) 0
scalar SingleCell_withSecondaryGnb.ue[0].ipv4.ip packetDropAddressResolutionFailed:count 0
scalar SingleCell_withSecondaryGnb.ue[0].ipv4.ip packetDropAddressResolutionFailed:sum(packetBytes) 0
scalar SingleCell_withSecondaryGnb.ue[0].ipv4.ip packetDropHopLimitReached:count 0
scalar SingleCell_withSecondaryGnb.ue[0].ipv4.ip packetDropHopLimitReached:sum(packetBytes) 0
scalar SingleCell_withSecondaryGnb.ue[0].ipv4.ip packetDropForwardingDisabled:count 0
scalar SingleCell_withSecondaryGnb.ue[0].ipv4.ip packetDropForwardingDisabled:sum(packetBytes) 0
scalar SingleCell_withSecondaryGnb.ue[0].ipv4.ip packetDropNoInterfaceFound:count 0
scalar SingleCell_withSecondaryGnb.ue[0].ipv4.ip packetDropNoInterfaceFound:sum(packetBytes) 0
scalar SingleCell_withSecondaryGnb.ue[0].ipv4.ip packetDropNoRouteFound:count 0
[...]
scalar SingleCell_withSecondaryGnb.masterEnb.sctp "RTO 24:10.0.2.2:min" inf
scalar SingleCell_withSecondaryGnb.masterEnb.sctp "RTO 24:10.0.2.2:max" -inf
scalar SingleCell_withSecondaryGnb.masterEnb.sctp "RTO 24:10.0.2.2:starttime" nan
scalar SingleCell_withSecondaryGnb.masterEnb.sctp "RTO 24:10.0.2.2:endtime" nan
scalar SingleCell_withSecondaryGnb.masterEnb.sctp "Slow Start Threshold 24:192.168.4.1:count" 0
scalar SingleCell_withSecondaryGnb.masterEnb.sctp "Slow Start Threshold 24:192.168.4.1:sum" 0
scalar SingleCell_withSecondaryGnb.masterEnb.sctp "Slow Start Threshold 24:192.168.4.1:sumweights" 0
scalar SingleCell_withSecondaryGnb.masterEnb.sctp "Slow Start Threshold 24:192.168.4.1:mean" -nan
scalar SingleCell_withSecondaryGnb.masterEnb.sctp "Slow Start Threshold 24:192.168.4.1:stddev" nan
scalar SingleCell_withSecondaryGnb.masterEnb.sctp "Slow Start Threshold 24:192.168.4.1:min" inf
scalar SingleCell_withSecondaryGnb.masterEnb.sctp "Slow Start Threshold 24:192.168.4.1:max" -inf
scalar SingleCell_withSecondaryGnb.masterEnb.sctp "Slow Start Threshold 24:192.168.4.1:starttime" nan
scalar SingleCell_withSecondaryGnb.masterEnb.sctp "Slow Start Threshold 24:192.168.4.1:endtime" nan
scalar SingleCell_withSecondaryGnb.masterEnb.sctp "Congestion Window 24:192.168.4.1:count" 0
scalar SingleCell_withSecondaryGnb.masterEnb.sctp "Congestion Window 24:192.168.4.1:sum" 0
scalar SingleCell_withSecondaryGnb.masterEnb.sctp "Congestion Window 24:192.168.4.1:sumweights" 0
scalar SingleCell_withSecondaryGnb.masterEnb.sctp "Congestion Window 24:192.168.4.1:mean" -nan
scalar SingleCell_withSecondaryGnb.masterEnb.sctp "Congestion Window 24:192.168.4.1:stddev" nan
scalar SingleCell_withSecondaryGnb.masterEnb.sctp "Congestion Window 24:192.168.4.1:min" inf
scalar SingleCell_withSecondaryGnb.masterEnb.sctp "Congestion Window 24:192.168.4.1:max" -inf
scalar SingleCell_withSecondaryGnb.masterEnb.sctp "Congestion Window 24:192.168.4.1:starttime" nan
scalar SingleCell_withSecondaryGnb.masterEnb.sctp "Congestion Window 24:192.168.4.1:endtime" nan
scalar SingleCell_withSecondaryGnb.masterEnb.sctp "Bandwidth 24:192.168.4.1:count" 0
scalar SingleCell_withSecondaryGnb.masterEnb.sctp "Bandwidth 24:192.168.4.1:sum" 0
scalar SingleCell_withSecondaryGnb.masterEnb.sctp "Bandwidth 24:192.168.4.1:sumweights" 0
scalar SingleCell_withSecondaryGnb.masterEnb.sctp "Bandwidth 24:192.168.4.1:mean" -nan
scalar SingleCell_withSecondaryGnb.masterEnb.sctp "Bandwidth 24:192.168.4.1:stddev" nan
scalar SingleCell_withSecondaryGnb.masterEnb.sctp "Bandwidth 24:192.168.4.1:min" inf
scalar SingleCell_withSecondaryGnb.masterEnb.sctp "Bandwidth 24:192.168.4.1:max" -inf
scalar SingleCell_withSecondaryGnb.masterEnb.sctp "Bandwidth 24:192.168.4.1:starttime" nan
scalar SingleCell_withSecondaryGnb.masterEnb.sctp "Bandwidth 24:192.168.4.1:endtime" nan
scalar SingleCell_withSecondaryGnb.masterEnb.sctp "RTO 24:192.168.4.1:count" 0
scalar SingleCell_withSecondaryGnb.masterEnb.sctp "RTO 24:192.168.4.1:sum" 0
scalar SingleCell_withSecondaryGnb.masterEnb.sctp "RTO 24:192.168.4.1:sumweights" 0
scalar SingleCell_withSecondaryGnb.masterEnb.sctp "RTO 24:192.168.4.1:mean" -nan
scalar SingleCell_withSecondaryGnb.masterEnb.sctp "RTO 24:192.168.4.1:stddev" nan
scalar SingleCell_withSecondaryGnb.masterEnb.sctp "RTO 24:192.168.4.1:min" inf
scalar SingleCell_withSecondaryGnb.masterEnb.sctp "RTO 24:192.168.4.1:max" -inf
scalar SingleCell_withSecondaryGnb.masterEnb.sctp "RTO 24:192.168.4.1:starttime" nan
scalar SingleCell_withSecondaryGnb.masterEnb.sctp "RTO 24:192.168.4.1:endtime" nan
scalar SingleCell_withSecondaryGnb.masterEnb.sctp "Slow Start Threshold 24:192.168.5.1:count" 0
scalar SingleCell_withSecondaryGnb.masterEnb.sctp "Slow Start Threshold 24:192.168.5.1:sum" 0
scalar SingleCell_withSecondaryGnb.masterEnb.sctp "Slow Start Threshold 24:192.168.5.1:sumweights" 0
scalar SingleCell_withSecondaryGnb.masterEnb.sctp "Slow Start Threshold 24:192.168.5.1:mean" -nan
scalar SingleCell_withSecondaryGnb.masterEnb.sctp "Slow Start Threshold 24:192.168.5.1:stddev" nan
scalar SingleCell_withSecondaryGnb.masterEnb.sctp "Slow Start Threshold 24:192.168.5.1:min" inf
scalar SingleCell_withSecondaryGnb.masterEnb.sctp "Slow Start Threshold 24:192.168.5.1:max" -inf
scalar SingleCell_withSecondaryGnb.masterEnb.sctp "Slow Start Threshold 24:192.168.5.1:starttime" nan
scalar SingleCell_withSecondaryGnb.masterEnb.sctp "Slow Start Threshold 24:192.168.5.1:endtime" nan
scalar SingleCell_withSecondaryGnb.masterEnb.sctp "Congestion Window 24:192.168.5.1:count" 0
scalar SingleCell_withSecondaryGnb.masterEnb.sctp "Congestion Window 24:192.168.5.1:sum" 0
scalar SingleCell_withSecondaryGnb.masterEnb.sctp "Congestion Window 24:192.168.5.1:sumweights" 0
scalar SingleCell_withSecondaryGnb.masterEnb.sctp "Congestion Window 24:192.168.5.1:mean" -nan
scalar SingleCell_withSecondaryGnb.masterEnb.sctp "Congestion Window 24:192.168.5.1:stddev" nan
scalar SingleCell_withSecondaryGnb.masterEnb.sctp "Congestion Window 24:192.168.5.1:min" inf
scalar SingleCell_withSecondaryGnb.masterEnb.sctp "Congestion Window 24:192.168.5.1:max" -inf
scalar SingleCell_withSecondaryGnb.masterEnb.sctp "Congestion Window 24:192.168.5.1:starttime" nan
scalar SingleCell_withSecondaryGnb.masterEnb.sctp "Congestion Window 24:192.168.5.1:endtime" nan
scalar SingleCell_withSecondaryGnb.masterEnb.sctp "Bandwidth 24:192.168.5.1:count" 0
scalar SingleCell_withSecondaryGnb.masterEnb.sctp "Bandwidth 24:192.168.5.1:sum" 0
scalar SingleCell_withSecondaryGnb.masterEnb.sctp "Bandwidth 24:192.168.5.1:sumweights" 0
scalar SingleCell_withSecondaryGnb.masterEnb.sctp "Bandwidth 24:192.168.5.1:mean" -nan
scalar SingleCell_withSecondaryGnb.masterEnb.sctp "Bandwidth 24:192.168.5.1:stddev" nan
scalar SingleCell_withSecondaryGnb.masterEnb.sctp "Bandwidth 24:192.168.5.1:min" inf
scalar SingleCell_withSecondaryGnb.masterEnb.sctp "Bandwidth 24:192.168.5.1:max" -inf
scalar SingleCell_withSecondaryGnb.masterEnb.sctp "Bandwidth 24:192.168.5.1:starttime" nan
scalar SingleCell_withSecondaryGnb.masterEnb.sctp "Bandwidth 24:192.168.5.1:endtime" nan
scalar SingleCell_withSecondaryGnb.masterEnb.sctp "RTO 24:192.168.5.1:count" 0
scalar SingleCell_withSecondaryGnb.masterEnb.sctp "RTO 24:192.168.5.1:sum" 0
scalar SingleCell_withSecondaryGnb.masterEnb.sctp "RTO 24:192.168.5.1:sumweights" 0
scalar SingleCell_withSecondaryGnb.masterEnb.sctp "RTO 24:192.168.5.1:mean" -nan
scalar SingleCell_withSecondaryGnb.masterEnb.sctp "RTO 24:192.168.5.1:stddev" nan
scalar SingleCell_withSecondaryGnb.masterEnb.sctp "RTO 24:192.168.5.1:min" inf
scalar SingleCell_withSecondaryGnb.masterEnb.sctp "RTO 24:192.168.5.1:max" -inf
scalar SingleCell_withSecondaryGnb.masterEnb.sctp "RTO 24:192.168.5.1:starttime" nan
scalar SingleCell_withSecondaryGnb.masterEnb.sctp "RTO 24:192.168.5.1:endtime" nan
scalar SingleCell_withSecondaryGnb.secondaryGnb.sctp "Slow Start Threshold 28:10.0.0.2:count" 0
scalar SingleCell_withSecondaryGnb.secondaryGnb.sctp "Slow Start Threshold 28:10.0.0.2:sum" 0
scalar SingleCell_withSecondaryGnb.secondaryGnb.sctp "Slow Start Threshold 28:10.0.0.2:sumweights" 0
scalar SingleCell_withSecondaryGnb.secondaryGnb.sctp "Slow Start Threshold 28:10.0.0.2:mean" -nan
scalar SingleCell_withSecondaryGnb.secondaryGnb.sctp "Slow Start Threshold 28:10.0.0.2:stddev" nan
scalar SingleCell_withSecondaryGnb.secondaryGnb.sctp "Slow Start Threshold 28:10.0.0.2:min" inf
scalar SingleCell_withSecondaryGnb.secondaryGnb.sctp "Slow Start Threshold 28:10.0.0.2:max" -inf
scalar SingleCell_withSecondaryGnb.secondaryGnb.sctp "Slow Start Threshold 28:10.0.0.2:starttime" nan
scalar SingleCell_withSecondaryGnb.secondaryGnb.sctp "Slow Start Threshold 28:10.0.0.2:endtime" nan
scalar SingleCell_withSecondaryGnb.secondaryGnb.sctp "Congestion Window 28:10.0.0.2:count" 0
scalar SingleCell_withSecondaryGnb.secondaryGnb.sctp "Congestion Window 28:10.0.0.2:sum" 0
scalar SingleCell_withSecondaryGnb.secondaryGnb.sctp "Congestion Window 28:10.0.0.2:sumweights" 0
scalar SingleCell_withSecondaryGnb.secondaryGnb.sctp "Congestion Window 28:10.0.0.2:mean" -nan
scalar SingleCell_withSecondaryGnb.secondaryGnb.sctp "Congestion Window 28:10.0.0.2:stddev" nan
scalar SingleCell_withSecondaryGnb.secondaryGnb.sctp "Congestion Window 28:10.0.0.2:min" inf
scalar SingleCell_withSecondaryGnb.secondaryGnb.sctp "Congestion Window 28:10.0.0.2:max" -inf
scalar SingleCell_withSecondaryGnb.secondaryGnb.sctp "Congestion Window 28:10.0.0.2:starttime" nan
scalar SingleCell_withSecondaryGnb.secondaryGnb.sctp "Congestion Window 28:10.0.0.2:endtime" nan
scalar SingleCell_withSecondaryGnb.secondaryGnb.sctp "Bandwidth 28:10.0.0.2:count" 0
scalar SingleCell_withSecondaryGnb.secondaryGnb.sctp "Bandwidth 28:10.0.0.2:sum" 0
scalar SingleCell_withSecondaryGnb.secondaryGnb.sctp "Bandwidth 28:10.0.0.2:sumweights" 0
scalar SingleCell_withSecondaryGnb.secondaryGnb.sctp "Bandwidth 28:10.0.0.2:mean" -nan
scalar SingleCell_withSecondaryGnb.secondaryGnb.sctp "Bandwidth 28:10.0.0.2:stddev" nan
scalar SingleCell_withSecondaryGnb.secondaryGnb.sctp "Bandwidth 28:10.0.0.2:min" inf
scalar SingleCell_withSecondaryGnb.secondaryGnb.sctp "Bandwidth 28:10.0.0.2:max" -inf
scalar SingleCell_withSecondaryGnb.secondaryGnb.sctp "Bandwidth 28:10.0.0.2:starttime" nan
scalar SingleCell_withSecondaryGnb.secondaryGnb.sctp "Bandwidth 28:10.0.0.2:endtime" nan
scalar SingleCell_withSecondaryGnb.secondaryGnb.sctp "RTO 28:10.0.0.2:count" 0
scalar SingleCell_withSecondaryGnb.secondaryGnb.sctp "RTO 28:10.0.0.2:sum" 0
scalar SingleCell_withSecondaryGnb.secondaryGnb.sctp "RTO 28:10.0.0.2:sumweights" 0
scalar SingleCell_withSecondaryGnb.secondaryGnb.sctp "RTO 28:10.0.0.2:mean" -nan
scalar SingleCell_withSecondaryGnb.secondaryGnb.sctp "RTO 28:10.0.0.2:stddev" nan
scalar SingleCell_withSecondaryGnb.secondaryGnb.sctp "RTO 28:10.0.0.2:min" inf
scalar SingleCell_withSecondaryGnb.secondaryGnb.sctp "RTO 28:10.0.0.2:max" -inf
scalar SingleCell_withSecondaryGnb.secondaryGnb.sctp "RTO 28:10.0.0.2:starttime" nan
scalar SingleCell_withSecondaryGnb.secondaryGnb.sctp "RTO 28:10.0.0.2:endtime" nan
scalar SingleCell_withSecondaryGnb.secondaryGnb.sctp "Slow Start Threshold 28:10.0.1.1:count" 0
scalar SingleCell_withSecondaryGnb.secondaryGnb.sctp "Slow Start Threshold 28:10.0.1.1:sum" 0
scalar SingleCell_withSecondaryGnb.secondaryGnb.sctp "Slow Start Threshold 28:10.0.1.1:sumweights" 0
scalar SingleCell_withSecondaryGnb.secondaryGnb.sctp "Slow Start Threshold 28:10.0.1.1:mean" -nan
scalar SingleCell_withSecondaryGnb.secondaryGnb.sctp "Slow Start Threshold 28:10.0.1.1:stddev" nan
scalar SingleCell_withSecondaryGnb.secondaryGnb.sctp "Slow Start Threshold 28:10.0.1.1:min" inf
scalar SingleCell_withSecondaryGnb.secondaryGnb.sctp "Slow Start Threshold 28:10.0.1.1:max" -inf
scalar SingleCell_withSecondaryGnb.secondaryGnb.sctp "Slow Start Threshold 28:10.0.1.1:starttime" nan
scalar SingleCell_withSecondaryGnb.secondaryGnb.sctp "Slow Start Threshold 28:10.0.1.1:endtime" nan
scalar SingleCell_withSecondaryGnb.secondaryGnb.sctp "Congestion Window 28:10.0.1.1:count" 0
scalar SingleCell_withSecondaryGnb.secondaryGnb.sctp "Congestion Window 28:10.0.1.1:sum" 0
scalar SingleCell_withSecondaryGnb.secondaryGnb.sctp "Congestion Window 28:10.0.1.1:sumweights" 0
scalar SingleCell_withSecondaryGnb.secondaryGnb.sctp "Congestion Window 28:10.0.1.1:mean" -nan
scalar SingleCell_withSecondaryGnb.secondaryGnb.sctp "Congestion Window 28:10.0.1.1:stddev" nan
scalar SingleCell_withSecondaryGnb.secondaryGnb.sctp "Congestion Window 28:10.0.1.1:min" inf
scalar SingleCell_withSecondaryGnb.secondaryGnb.sctp "Congestion Window 28:10.0.1.1:max" -inf
scalar SingleCell_withSecondaryGnb.secondaryGnb.sctp "Congestion Window 28:10.0.1.1:starttime" nan
scalar SingleCell_withSecondaryGnb.secondaryGnb.sctp "Congestion Window 28:10.0.1.1:endtime" nan
scalar SingleCell_withSecondaryGnb.secondaryGnb.sctp "Bandwidth 28:10.0.1.1:count" 0
scalar SingleCell_withSecondaryGnb.secondaryGnb.sctp "Bandwidth 28:10.0.1.1:sum" 0
scalar SingleCell_withSecondaryGnb.secondaryGnb.sctp "Bandwidth 28:10.0.1.1:sumweights" 0
scalar SingleCell_withSecondaryGnb.secondaryGnb.sctp "Bandwidth 28:10.0.1.1:mean" -nan
scalar SingleCell_withSecondaryGnb.secondaryGnb.sctp "Bandwidth 28:10.0.1.1:stddev" nan
scalar SingleCell_withSecondaryGnb.secondaryGnb.sctp "Bandwidth 28:10.0.1.1:min" inf
scalar SingleCell_withSecondaryGnb.secondaryGnb.sctp "Bandwidth 28:10.0.1.1:max" -inf
scalar SingleCell_withSecondaryGnb.secondaryGnb.sctp "Bandwidth 28:10.0.1.1:starttime" nan
scalar SingleCell_withSecondaryGnb.secondaryGnb.sctp "Bandwidth 28:10.0.1.1:endtime" nan
scalar SingleCell_withSecondaryGnb.secondaryGnb.sctp "RTO 28:10.0.1.1:count" 0
scalar SingleCell_withSecondaryGnb.secondaryGnb.sctp "RTO 28:10.0.1.1:sum" 0
scalar SingleCell_withSecondaryGnb.secondaryGnb.sctp "RTO 28:10.0.1.1:sumweights" 0
scalar SingleCell_withSecondaryGnb.secondaryGnb.sctp "RTO 28:10.0.1.1:mean" -nan
scalar SingleCell_withSecondaryGnb.secondaryGnb.sctp "RTO 28:10.0.1.1:stddev" nan
scalar SingleCell_withSecondaryGnb.secondaryGnb.sctp "RTO 28:10.0.1.1:min" inf
scalar SingleCell_withSecondaryGnb.secondaryGnb.sctp "RTO 28:10.0.1.1:max" -inf
scalar SingleCell_withSecondaryGnb.secondaryGnb.sctp "RTO 28:10.0.1.1:starttime" nan
scalar SingleCell_withSecondaryGnb.secondaryGnb.sctp "RTO 28:10.0.1.1:endtime" nan
scalar SingleCell_withSecondaryGnb.secondaryGnb.sctp "Slow Start Threshold 28:10.0.2.1:count" 0
scalar SingleCell_withSecondaryGnb.secondaryGnb.sctp "Slow Start Threshold 28:10.0.2.1:sum" 0
scalar SingleCell_withSecondaryGnb.secondaryGnb.sctp "Slow Start Threshold 28:10.0.2.1:sumweights" 0
scalar SingleCell_withSecondaryGnb.secondaryGnb.sctp "Slow Start Threshold 28:10.0.2.1:mean" -nan
scalar SingleCell_withSecondaryGnb.secondaryGnb.sctp "Slow Start Threshold 28:10.0.2.1:stddev" nan
scalar SingleCell_withSecondaryGnb.secondaryGnb.sctp "Slow Start Threshold 28:10.0.2.1:min" inf
scalar SingleCell_withSecondaryGnb.secondaryGnb.sctp "Slow Start Threshold 28:10.0.2.1:max" -inf
scalar SingleCell_withSecondaryGnb.secondaryGnb.sctp "Slow Start Threshold 28:10.0.2.1:starttime" nan
scalar SingleCell_withSecondaryGnb.secondaryGnb.sctp "Slow Start Threshold 28:10.0.2.1:endtime" nan
scalar SingleCell_withSecondaryGnb.secondaryGnb.sctp "Congestion Window 28:10.0.2.1:count" 0
scalar SingleCell_withSecondaryGnb.secondaryGnb.sctp "Congestion Window 28:10.0.2.1:sum" 0
scalar SingleCell_withSecondaryGnb.secondaryGnb.sctp "Congestion Window 28:10.0.2.1:sumweights" 0
scalar SingleCell_withSecondaryGnb.secondaryGnb.sctp "Congestion Window 28:10.0.2.1:mean" -nan
scalar SingleCell_withSecondaryGnb.secondaryGnb.sctp "Congestion Window 28:10.0.2.1:stddev" nan
scalar SingleCell_withSecondaryGnb.secondaryGnb.sctp "Congestion Window 28:10.0.2.1:min" inf
scalar SingleCell_withSecondaryGnb.secondaryGnb.sctp "Congestion Window 28:10.0.2.1:max" -inf
scalar SingleCell_withSecondaryGnb.secondaryGnb.sctp "Congestion Window 28:10.0.2.1:starttime" nan
scalar SingleCell_withSecondaryGnb.secondaryGnb.sctp "Congestion Window 28:10.0.2.1:endtime" nan
scalar SingleCell_withSecondaryGnb.secondaryGnb.sctp "Bandwidth 28:10.0.2.1:count" 0
scalar SingleCell_withSecondaryGnb.secondaryGnb.sctp "Bandwidth 28:10.0.2.1:sum" 0
scalar SingleCell_withSecondaryGnb.secondaryGnb.sctp "Bandwidth 28:10.0.2.1:sumweights" 0
scalar SingleCell_withSecondaryGnb.secondaryGnb.sctp "Bandwidth 28:10.0.2.1:mean" -nan
scalar SingleCell_withSecondaryGnb.secondaryGnb.sctp "Bandwidth 28:10.0.2.1:stddev" nan
scalar SingleCell_withSecondaryGnb.secondaryGnb.sctp "Bandwidth 28:10.0.2.1:min" inf
scalar SingleCell_withSecondaryGnb.secondaryGnb.sctp "Bandwidth 28:10.0.2.1:max" -inf
scalar SingleCell_withSecondaryGnb.secondaryGnb.sctp "Bandwidth 28:10.0.2.1:starttime" nan
scalar SingleCell_withSecondaryGnb.secondaryGnb.sctp "Bandwidth 28:10.0.2.1:endtime" nan
scalar SingleCell_withSecondaryGnb.secondaryGnb.sctp "RTO 28:10.0.2.1:count" 0
scalar SingleCell_withSecondaryGnb.secondaryGnb.sctp "RTO 28:10.0.2.1:sum" 0
scalar SingleCell_withSecondaryGnb.secondaryGnb.sctp "RTO 28:10.0.2.1:sumweights" 0
scalar SingleCell_withSecondaryGnb.secondaryGnb.sctp "RTO 28:10.0.2.1:mean" -nan
scalar SingleCell_withSecondaryGnb.secondaryGnb.sctp "RTO 28:10.0.2.1:stddev" nan
scalar SingleCell_withSecondaryGnb.secondaryGnb.sctp "RTO 28:10.0.2.1:min" inf
scalar SingleCell_withSecondaryGnb.secondaryGnb.sctp "RTO 28:10.0.2.1:max" -inf
scalar SingleCell_withSecondaryGnb.secondaryGnb.sctp "RTO 28:10.0.2.1:starttime" nan
scalar SingleCell_withSecondaryGnb.secondaryGnb.sctp "RTO 28:10.0.2.1:endtime" nan
scalar SingleCell_withSecondaryGnb.secondaryGnb.sctp "Slow Start Threshold 28:192.168.3.1:count" 0
scalar SingleCell_withSecondaryGnb.secondaryGnb.sctp "Slow Start Threshold 28:192.168.3.1:sum" 0
scalar SingleCell_withSecondaryGnb.secondaryGnb.sctp "Slow Start Threshold 28:192.168.3.1:sumweights" 0
scalar SingleCell_withSecondaryGnb.secondaryGnb.sctp "Slow Start Threshold 28:192.168.3.1:mean" -nan
scalar SingleCell_withSecondaryGnb.secondaryGnb.sctp "Slow Start Threshold 28:192.168.3.1:stddev" nan
scalar SingleCell_withSecondaryGnb.secondaryGnb.sctp "Slow Start Threshold 28:192.168.3.1:min" inf
scalar SingleCell_withSecondaryGnb.secondaryGnb.sctp "Slow Start Threshold 28:192.168.3.1:max" -inf
scalar SingleCell_withSecondaryGnb.secondaryGnb.sctp "Slow Start Threshold 28:192.168.3.1:starttime" nan
scalar SingleCell_withSecondaryGnb.secondaryGnb.sctp "Slow Start Threshold 28:192.168.3.1:endtime" nan
scalar SingleCell_withSecondaryGnb.secondaryGnb.sctp "Congestion Window 28:192.168.3.1:count" 0
scalar SingleCell_withSecondaryGnb.secondaryGnb.sctp "Congestion Window 28:192.168.3.1:sum" 0
scalar SingleCell_withSecondaryGnb.secondaryGnb.sctp "Congestion Window 28:192.168.3.1:sumweights" 0
scalar SingleCell_withSecondaryGnb.secondaryGnb.sctp "Congestion Window 28:192.168.3.1:mean" -nan
scalar SingleCell_withSecondaryGnb.secondaryGnb.sctp "Congestion Window 28:192.168.3.1:stddev" nan
scalar SingleCell_withSecondaryGnb.secondaryGnb.sctp "Congestion Window 28:192.168.3.1:min" inf
scalar SingleCell_withSecondaryGnb.secondaryGnb.sctp "Congestion Window 28:192.168.3.1:max" -inf
scalar SingleCell_withSecondaryGnb.secondaryGnb.sctp "Congestion Window 28:192.168.3.1:starttime" nan
scalar SingleCell_withSecondaryGnb.secondaryGnb.sctp "Congestion Window 28:192.168.3.1:endtime" nan
scalar SingleCell_withSecondaryGnb.secondaryGnb.sctp "Bandwidth 28:192.168.3.1:count" 0
scalar SingleCell_withSecondaryGnb.secondaryGnb.sctp "Bandwidth 28:192.168.3.1:sum" 0
scalar SingleCell_withSecondaryGnb.secondaryGnb.sctp "Bandwidth 28:192.168.3.1:sumweights" 0
scalar SingleCell_withSecondaryGnb.secondaryGnb.sctp "Bandwidth 28:192.168.3.1:mean" -nan
scalar SingleCell_withSecondaryGnb.secondaryGnb.sctp "Bandwidth 28:192.168.3.1:stddev" nan
scalar SingleCell_withSecondaryGnb.secondaryGnb.sctp "Bandwidth 28:192.168.3.1:min" inf
scalar SingleCell_withSecondaryGnb.secondaryGnb.sctp "Bandwidth 28:192.168.3.1:max" -inf
scalar SingleCell_withSecondaryGnb.secondaryGnb.sctp "Bandwidth 28:192.168.3.1:starttime" nan
scalar SingleCell_withSecondaryGnb.secondaryGnb.sctp "Bandwidth 28:192.168.3.1:endtime" nan
scalar SingleCell_withSecondaryGnb.secondaryGnb.sctp "RTO 28:192.168.3.1:count" 0
scalar SingleCell_withSecondaryGnb.secondaryGnb.sctp "RTO 28:192.168.3.1:sum" 0
scalar SingleCell_withSecondaryGnb.secondaryGnb.sctp "RTO 28:192.168.3.1:sumweights" 0
scalar SingleCell_withSecondaryGnb.secondaryGnb.sctp "RTO 28:192.168.3.1:mean" -nan
scalar SingleCell_withSecondaryGnb.secondaryGnb.sctp "RTO 28:192.168.3.1:stddev" nan
scalar SingleCell_withSecondaryGnb.secondaryGnb.sctp "RTO 28:192.168.3.1:min" inf
scalar SingleCell_withSecondaryGnb.secondaryGnb.sctp "RTO 28:192.168.3.1:max" -inf
scalar SingleCell_withSecondaryGnb.secondaryGnb.sctp "RTO 28:192.168.3.1:starttime" nan
scalar SingleCell_withSecondaryGnb.secondaryGnb.sctp "RTO 28:192.168.3.1:endtime" nan

