version 3
run SingleCell-CBR-DL-0-20260710-11:32:34-709255
attr configname SingleCell-CBR-DL
attr datetime 20260710-11:32:34
attr datetimef 20260710-113234
attr experiment SingleCell-CBR-DL
attr inifile omnetpp.ini
attr iterationvars "$u=0, $numUe=10, $numUeApps=2"
attr iterationvarsd u=0/numUe=10/numUeApps=2
attr iterationvarsf u=0,numUe=10,numUeApps=2-
attr measurement "$u=0, $numUe=10, $numUeApps=2"
attr network simu5g.simulations.nr.networks.SingleCell_withSecondaryGnb
attr processid 709255
attr repetition 0
attr replication #0
attr resultdir results
attr runnumber 0
attr seedset 0
itervar numUe 10
itervar numUeApps 2
itervar u 0
config **.param-recording false
config image-path /home/andras/projects/Simu5G-fork/simu5g-fork/images
config output-scalar-file results/omnetpp.ini-SingleCell-CBR-DL-#0.sca
config output-scalar-precision 17
config output-vector-file results/omnetpp.ini-SingleCell-CBR-DL-#0.vec
config output-vector-precision 17
config record-eventlog false
config sim-time-limit 10s
config extends "SingleCell, CBR-DL"
config network simu5g.simulations.nr.networks.SingleCell_withSecondaryGnb
config sim-time-limit 10s
config *.carrierAggregation.numComponentCarriers 2
config *.carrierAggregation.componentCarrier[0].numerologyIndex 0
config *.carrierAggregation.componentCarrier[0].carrierFrequency 2GHz
config *.carrierAggregation.componentCarrier[0].numBands 6
config *.carrierAggregation.componentCarrier[1].numerologyIndex 0
config *.carrierAggregation.componentCarrier[1].carrierFrequency 6GHz
config *.carrierAggregation.componentCarrier[1].numBands 6
config *.masterEnb.cellularNic.numCarriers 1
config *.masterEnb.cellularNic.channelModel[0].componentCarrierModule "\"carrierAggregation.componentCarrier[0]\""
config *.secondaryGnb.cellularNic.numCarriers 1
config *.secondaryGnb.cellularNic.channelModel[0].componentCarrierModule "\"carrierAggregation.componentCarrier[1]\""
config *.ue[*].cellularNic.numCarriers 1
config *.ue[*].cellularNic.numNrCarriers 1
config *.ue[*].cellularNic.channelModel[0].componentCarrierModule "\"carrierAggregation.componentCarrier[0]\""
config *.ue[*].cellularNic.nrChannelModel[0].componentCarrierModule "\"carrierAggregation.componentCarrier[1]\""
config *.masterEnb.mobility.initialX 300m
config *.masterEnb.mobility.initialY 300m
config *.secondaryGnb.mobility.initialX 600m
config *.secondaryGnb.mobility.initialY 300m
config *.masterEnb.cellularNic.typename LteNicEnbD2D
config *.masterEnb.cellularNic.pdcp.typename NrPdcpEnb
config *.secondaryGnb.masterId 1
config **.dualConnectivityEnabled true
config *.*nb.numX2Apps 1
config *.*nb.x2App[*].server.localPort "5000 + ancestorIndex(1)"
config *.masterEnb.x2App[0].client.connectAddress "\"secondaryGnb%x2ppp0\""
config *.secondaryGnb.x2App[0].client.connectAddress "\"masterEnb%x2ppp0\""
config *.numUe 10
config *.ue[*].servingNodeId 1
config *.ue[*].nrServingNodeId 2
config **.mobility.constraintAreaMaxX 700m
config **.mobility.constraintAreaMaxY 400m
config **.mobility.constraintAreaMinX 200m
config **.mobility.constraintAreaMinY 200m
config *.ue[*].mobility.typename RandomWaypointMobility
config *.ue[*].mobility.initialX uniform(200m,700m)
config *.ue[*].mobility.initialY uniform(200m,400m)
config *.ue[*].mobility.speed uniform(5mps,15mps)
config *.ue[*].numApps 2
config *.server.numApps 10*2
config *.ue[*].app[*].typename CbrReceiver
config *.ue[*].app[0].localPort 1000
config *.ue[*].app[1].localPort 10000
config *.server.app[*].samplingTime 0.02s
config *.server.app[0..9].destAddress "\"ue[\"+string(ancestorIndex(0))+\"]\""
config *.server.app[10..19].destAddress "\"ue[\"+string(ancestorIndex(0)-10)+\"]\""
config *.server.app[0..9].destPort 1000
config *.server.app[10..19].destPort 10000
config *.server.app[0..9].tos 0
config *.server.app[10..19].tos 10
config *.server.app[*].localPort 3088+ancestorIndex(0)
config *.server.app[*].typename CbrSender
config *.server.app[*].startTime uniform(0.01s,0.02s)
config sim-time-limit 20s
config **.routingRecorder.enabled false
config seed-set 0
config **.sctp.**.scalar-recording false
config **.sctp.**.vector-recording false
config **.vector-recording true
config output-scalar-file "results/SingleCell-CBR-DL/$u=0, $numUe=10, $numUeApps=2-0.sca"
config output-vector-file "results/SingleCell-CBR-DL/$u=0, $numUe=10, $numUeApps=2-0.vec"
config **.mobility.constraintAreaMinZ 0m
config **.mobility.constraintAreaMaxZ 0m
config **.mobility.initFromDisplayString false
config **.eNodeBTxPower 40dBm
config **.sctp.nagleEnabled false
config **.sctp.enableHeartbeats false
config **.downlinkInterference true
config **.uplinkInterference true
config **.enableHandover true
config **.fbPeriod 12tti
config **.targetBler 0.01
config **.blerShift 5
config *.configurator.config "xmldoc(\"./demo.xml\")"

scalar SingleCell_withSecondaryGnb.masterEnb.x2App[0].client ums 1452
scalar SingleCell_withSecondaryGnb.secondaryGnb.x2App[0].client ums 1452
scalar SingleCell_withSecondaryGnb.server.lo[0].lo rcvdPkFromHl:count 0
scalar SingleCell_withSecondaryGnb.server.lo[0].lo rcvdPkFromHl:sum(packetBytes) 0
scalar SingleCell_withSecondaryGnb.server.lo[0].lo passedUpPk:count 0
scalar SingleCell_withSecondaryGnb.server.lo[0].lo passedUpPk:sum(packetBytes) 0
scalar SingleCell_withSecondaryGnb.server.lo[0] packetDropInterfaceDown:count 0
scalar SingleCell_withSecondaryGnb.server.lo[0] packetDropInterfaceDown:sum(packetBytes) 0
scalar SingleCell_withSecondaryGnb.server.lo[0] packetDropNoCarrier:count 0
scalar SingleCell_withSecondaryGnb.server.lo[0] packetDropNoCarrier:sum(packetBytes) 0
scalar SingleCell_withSecondaryGnb.server.ppp[0].queue queueLength:last 0
scalar SingleCell_withSecondaryGnb.server.ppp[0].queue queueLength:max 0
scalar SingleCell_withSecondaryGnb.server.ppp[0].queue queueLength:timeavg 0
scalar SingleCell_withSecondaryGnb.server.ppp[0].queue queueBitLength:last 0
scalar SingleCell_withSecondaryGnb.server.ppp[0].queue queueBitLength:max 0
scalar SingleCell_withSecondaryGnb.server.ppp[0].queue queueBitLength:timeavg 0
scalar SingleCell_withSecondaryGnb.server.ppp[0].queue outgoingPackets:count 10000
scalar SingleCell_withSecondaryGnb.server.ppp[0].queue outgoingPacketLengths:sum 5440000
scalar SingleCell_withSecondaryGnb.server.ppp[0].queue incomingPackets:count 10000
scalar SingleCell_withSecondaryGnb.server.ppp[0].queue incomingPacketLengths:sum 5440000
scalar SingleCell_withSecondaryGnb.server.ppp[0].queue droppedPacketsQueueOverflow:count 0
scalar SingleCell_withSecondaryGnb.server.ppp[0].queue droppedPacketLengthsQueueOverflow:sum 0
scalar SingleCell_withSecondaryGnb.server.ppp[0].ppp transmissionState:timeavg 6.0000000000002543e-05
scalar SingleCell_withSecondaryGnb.server.ppp[0].ppp rxPkOk:count 0
scalar SingleCell_withSecondaryGnb.server.ppp[0].ppp rxPkOk:sum(packetBytes) 0
scalar SingleCell_withSecondaryGnb.server.ppp[0].ppp txPk:count 10000
scalar SingleCell_withSecondaryGnb.server.ppp[0].ppp txPk:sum(packetBytes) 750000
scalar SingleCell_withSecondaryGnb.server.ppp[0].ppp rcvdPkFromHl:count 10000
scalar SingleCell_withSecondaryGnb.server.ppp[0].ppp rcvdPkFromHl:sum(packetBytes) 680000
scalar SingleCell_withSecondaryGnb.server.ppp[0].ppp passedUpPk:count 0
scalar SingleCell_withSecondaryGnb.server.ppp[0].ppp passedUpPk:sum(packetBytes) 0
scalar SingleCell_withSecondaryGnb.server.ppp[0].ppp packetDropIncorrectlyReceived:count 0
scalar SingleCell_withSecondaryGnb.server.ppp[0].ppp packetDropIncorrectlyReceived:sum(packetBytes) 0
scalar SingleCell_withSecondaryGnb.server.ppp[0].ppp packetDropInterfaceDown:count 0
scalar SingleCell_withSecondaryGnb.server.ppp[0].ppp packetDropInterfaceDown:sum(packetBytes) 0
scalar SingleCell_withSecondaryGnb.server.ppp[0] packetDropInterfaceDown:count 0
scalar SingleCell_withSecondaryGnb.server.ppp[0] packetDropInterfaceDown:sum(packetBytes) 0
scalar SingleCell_withSecondaryGnb.server.ppp[0] packetDropNoCarrier:count 0
scalar SingleCell_withSecondaryGnb.server.ppp[0] packetDropNoCarrier:sum(packetBytes) 0
scalar SingleCell_withSecondaryGnb.server.ipv4.ip packetDropAddressResolutionFailed:count 0
scalar SingleCell_withSecondaryGnb.server.ipv4.ip packetDropAddressResolutionFailed:sum(packetBytes) 0
scalar SingleCell_withSecondaryGnb.server.ipv4.ip packetDropHopLimitReached:count 0
scalar SingleCell_withSecondaryGnb.server.ipv4.ip packetDropHopLimitReached:sum(packetBytes) 0
scalar SingleCell_withSecondaryGnb.server.ipv4.ip packetDropForwardingDisabled:count 0
scalar SingleCell_withSecondaryGnb.server.ipv4.ip packetDropForwardingDisabled:sum(packetBytes) 0
scalar SingleCell_withSecondaryGnb.server.ipv4.ip packetDropNoInterfaceFound:count 0
scalar SingleCell_withSecondaryGnb.server.ipv4.ip packetDropNoInterfaceFound:sum(packetBytes) 0
scalar SingleCell_withSecondaryGnb.server.ipv4.ip packetDropNoRouteFound:count 0
scalar SingleCell_withSecondaryGnb.server.ipv4.ip packetDropNoRouteFound:sum(packetBytes) 0
scalar SingleCell_withSecondaryGnb.server.ipv4.ip packetDropUndefined:count 0
scalar SingleCell_withSecondaryGnb.server.ipv4.ip packetDropUndefined:sum(packetBytes) 0
scalar SingleCell_withSecondaryGnb.server.ipv4.arp arpResolutionFailed:count 0
scalar SingleCell_withSecondaryGnb.server.ipv4.arp arpResolutionCompleted:count 0
scalar SingleCell_withSecondaryGnb.server.ipv4.arp arpResolutionInitiated:count 0
scalar SingleCell_withSecondaryGnb.server.ipv4.arp arpReplySent:count 0
scalar SingleCell_withSecondaryGnb.server.ipv4.arp arpReplySent:sum(packetBytes) 0
scalar SingleCell_withSecondaryGnb.server.ipv4.arp arpRequestSent:count 0
scalar SingleCell_withSecondaryGnb.server.ipv4.arp arpRequestSent:sum(packetBytes) 0
scalar SingleCell_withSecondaryGnb.server.udp packetReceived:count 0
scalar SingleCell_withSecondaryGnb.server.udp packetReceived:sum(packetBytes) 0
scalar SingleCell_withSecondaryGnb.server.udp packetSent:count 10000
scalar SingleCell_withSecondaryGnb.server.udp packetSent:sum(packetBytes) 480000
scalar SingleCell_withSecondaryGnb.server.udp passedUpPk:count 0
scalar SingleCell_withSecondaryGnb.server.udp droppedPkWrongPort:count 0
scalar SingleCell_withSecondaryGnb.server.udp droppedPkBadChecksum:count 0
scalar SingleCell_withSecondaryGnb.server.app[0] cbrGeneratedBytes:mean 40
scalar SingleCell_withSecondaryGnb.server.app[0] cbrGeneratedBytes:last(sumPerDuration) 2000.3770341155655
scalar SingleCell_withSecondaryGnb.server.app[0] cbrGeneratedThroughput:simu5g_rateavg 2000
scalar SingleCell_withSecondaryGnb.server.app[1] cbrGeneratedBytes:mean 40
scalar SingleCell_withSecondaryGnb.server.app[1] cbrGeneratedBytes:last(sumPerDuration) 2001.2870198362109
scalar SingleCell_withSecondaryGnb.server.app[1] cbrGeneratedThroughput:simu5g_rateavg 2000
scalar SingleCell_withSecondaryGnb.server.app[2] cbrGeneratedBytes:mean 40
scalar SingleCell_withSecondaryGnb.server.app[2] cbrGeneratedBytes:last(sumPerDuration) 2001.0483812987547
scalar SingleCell_withSecondaryGnb.server.app[2] cbrGeneratedThroughput:simu5g_rateavg 2000
scalar SingleCell_withSecondaryGnb.server.app[3] cbrGeneratedBytes:mean 40
scalar SingleCell_withSecondaryGnb.server.app[3] cbrGeneratedBytes:last(sumPerDuration) 2000.132328773873
scalar SingleCell_withSecondaryGnb.server.app[3] cbrGeneratedThroughput:simu5g_rateavg 2000
scalar SingleCell_withSecondaryGnb.server.app[4] cbrGeneratedBytes:mean 40
scalar SingleCell_withSecondaryGnb.server.app[4] cbrGeneratedBytes:last(sumPerDuration) 2000.9541429929691
scalar SingleCell_withSecondaryGnb.server.app[4] cbrGeneratedThroughput:simu5g_rateavg 2000
scalar SingleCell_withSecondaryGnb.server.app[5] cbrGeneratedBytes:mean 40
scalar SingleCell_withSecondaryGnb.server.app[5] cbrGeneratedBytes:last(sumPerDuration) 2001.2681492717506
scalar SingleCell_withSecondaryGnb.server.app[5] cbrGeneratedThroughput:simu5g_rateavg 2000
scalar SingleCell_withSecondaryGnb.server.app[6] cbrGeneratedBytes:mean 40
scalar SingleCell_withSecondaryGnb.server.app[6] cbrGeneratedBytes:last(sumPerDuration) 2001.5000831144173
scalar SingleCell_withSecondaryGnb.server.app[6] cbrGeneratedThroughput:simu5g_rateavg 2000
scalar SingleCell_withSecondaryGnb.server.app[7] cbrGeneratedBytes:mean 40
scalar SingleCell_withSecondaryGnb.server.app[7] cbrGeneratedBytes:last(sumPerDuration) 2000.1477281493972
scalar SingleCell_withSecondaryGnb.server.app[7] cbrGeneratedThroughput:simu5g_rateavg 2000
scalar SingleCell_withSecondaryGnb.server.app[8] cbrGeneratedBytes:mean 40
scalar SingleCell_withSecondaryGnb.server.app[8] cbrGeneratedBytes:last(sumPerDuration) 2000.7902260669016
scalar SingleCell_withSecondaryGnb.server.app[8] cbrGeneratedThroughput:simu5g_rateavg 2000
scalar SingleCell_withSecondaryGnb.server.app[9] cbrGeneratedBytes:mean 40
scalar SingleCell_withSecondaryGnb.server.app[9] cbrGeneratedBytes:last(sumPerDuration) 2001.8846394459997
scalar SingleCell_withSecondaryGnb.server.app[9] cbrGeneratedThroughput:simu5g_rateavg 2000
scalar SingleCell_withSecondaryGnb.server.app[10] cbrGeneratedBytes:mean 40
scalar SingleCell_withSecondaryGnb.server.app[10] cbrGeneratedBytes:last(sumPerDuration) 2001.3951629397736
scalar SingleCell_withSecondaryGnb.server.app[10] cbrGeneratedThroughput:simu5g_rateavg 2000
scalar SingleCell_withSecondaryGnb.server.app[11] cbrGeneratedBytes:mean 40
scalar SingleCell_withSecondaryGnb.server.app[11] cbrGeneratedBytes:last(sumPerDuration) 2001.5613379975653
scalar SingleCell_withSecondaryGnb.server.app[11] cbrGeneratedThroughput:simu5g_rateavg 2000
scalar SingleCell_withSecondaryGnb.server.app[12] cbrGeneratedBytes:mean 40
scalar SingleCell_withSecondaryGnb.server.app[12] cbrGeneratedBytes:last(sumPerDuration) 2000.8457895099505
scalar SingleCell_withSecondaryGnb.server.app[12] cbrGeneratedThroughput:simu5g_rateavg 2000
scalar SingleCell_withSecondaryGnb.server.app[13] cbrGeneratedBytes:mean 40
scalar SingleCell_withSecondaryGnb.server.app[13] cbrGeneratedBytes:last(sumPerDuration) 2000.3146934780025
scalar SingleCell_withSecondaryGnb.server.app[13] cbrGeneratedThroughput:simu5g_rateavg 2000
scalar SingleCell_withSecondaryGnb.server.app[14] cbrGeneratedBytes:mean 40
scalar SingleCell_withSecondaryGnb.server.app[14] cbrGeneratedBytes:last(sumPerDuration) 2001.6620237729023
scalar SingleCell_withSecondaryGnb.server.app[14] cbrGeneratedThroughput:simu5g_rateavg 2000
scalar SingleCell_withSecondaryGnb.server.app[15] cbrGeneratedBytes:mean 40
scalar SingleCell_withSecondaryGnb.server.app[15] cbrGeneratedBytes:last(sumPerDuration) 2001.6740538957381
scalar SingleCell_withSecondaryGnb.server.app[15] cbrGeneratedThroughput:simu5g_rateavg 2000
scalar SingleCell_withSecondaryGnb.server.app[16] cbrGeneratedBytes:mean 40
scalar SingleCell_withSecondaryGnb.server.app[16] cbrGeneratedBytes:last(sumPerDuration) 2001.6824759912745
scalar SingleCell_withSecondaryGnb.server.app[16] cbrGeneratedThroughput:simu5g_rateavg 2000
scalar SingleCell_withSecondaryGnb.server.app[17] cbrGeneratedBytes:mean 40
scalar SingleCell_withSecondaryGnb.server.app[17] cbrGeneratedBytes:last(sumPerDuration) 2001.480590181425
scalar SingleCell_withSecondaryGnb.server.app[17] cbrGeneratedThroughput:simu5g_rateavg 2000
scalar SingleCell_withSecondaryGnb.server.app[18] cbrGeneratedBytes:mean 40
scalar SingleCell_withSecondaryGnb.server.app[18] cbrGeneratedBytes:last(sumPerDuration) 2001.1666206195227
scalar SingleCell_withSecondaryGnb.server.app[18] cbrGeneratedThroughput:simu5g_rateavg 2000
scalar SingleCell_withSecondaryGnb.server.app[19] cbrGeneratedBytes:mean 40
scalar SingleCell_withSecondaryGnb.server.app[19] cbrGeneratedBytes:last(sumPerDuration) 2001.2583564530551
scalar SingleCell_withSecondaryGnb.server.app[19] cbrGeneratedThroughput:simu5g_rateavg 2000
scalar SingleCell_withSecondaryGnb.router.lo[0].lo rcvdPkFromHl:count 0
scalar SingleCell_withSecondaryGnb.router.lo[0].lo rcvdPkFromHl:sum(packetBytes) 0
scalar SingleCell_withSecondaryGnb.router.lo[0].lo passedUpPk:count 0
scalar SingleCell_withSecondaryGnb.router.lo[0].lo passedUpPk:sum(packetBytes) 0
scalar SingleCell_withSecondaryGnb.router.lo[0] packetDropInterfaceDown:count 0
scalar SingleCell_withSecondaryGnb.router.lo[0] packetDropInterfaceDown:sum(packetBytes) 0
scalar SingleCell_withSecondaryGnb.router.lo[0] packetDropNoCarrier:count 0
scalar SingleCell_withSecondaryGnb.router.lo[0] packetDropNoCarrier:sum(packetBytes) 0
scalar SingleCell_withSecondaryGnb.router.ppp[0].queue queueLength:last 0
scalar SingleCell_withSecondaryGnb.router.ppp[0].queue queueLength:max 0
scalar SingleCell_withSecondaryGnb.router.ppp[0].queue queueLength:timeavg 0
scalar SingleCell_withSecondaryGnb.router.ppp[0].queue queueBitLength:last 0
scalar SingleCell_withSecondaryGnb.router.ppp[0].queue queueBitLength:max 0
scalar SingleCell_withSecondaryGnb.router.ppp[0].queue queueBitLength:timeavg 0
scalar SingleCell_withSecondaryGnb.router.ppp[0].queue outgoingPackets:count 0
scalar SingleCell_withSecondaryGnb.router.ppp[0].queue outgoingPacketLengths:sum 0
scalar SingleCell_withSecondaryGnb.router.ppp[0].queue incomingPackets:count 0
scalar SingleCell_withSecondaryGnb.router.ppp[0].queue incomingPacketLengths:sum 0
scalar SingleCell_withSecondaryGnb.router.ppp[0].queue droppedPacketsQueueOverflow:count 0
scalar SingleCell_withSecondaryGnb.router.ppp[0].queue droppedPacketLengthsQueueOverflow:sum 0
scalar SingleCell_withSecondaryGnb.router.ppp[0].ppp transmissionState:timeavg 0
scalar SingleCell_withSecondaryGnb.router.ppp[0].ppp rxPkOk:count 10000
scalar SingleCell_withSecondaryGnb.router.ppp[0].ppp rxPkOk:sum(packetBytes) 750000
scalar SingleCell_withSecondaryGnb.router.ppp[0].ppp txPk:count 0
scalar SingleCell_withSecondaryGnb.router.ppp[0].ppp txPk:sum(packetBytes) 0
scalar SingleCell_withSecondaryGnb.router.ppp[0].ppp rcvdPkFromHl:count 0
scalar SingleCell_withSecondaryGnb.router.ppp[0].ppp rcvdPkFromHl:sum(packetBytes) 0
scalar SingleCell_withSecondaryGnb.router.ppp[0].ppp passedUpPk:count 10000
scalar SingleCell_withSecondaryGnb.router.ppp[0].ppp passedUpPk:sum(packetBytes) 680000
scalar SingleCell_withSecondaryGnb.router.ppp[0].ppp packetDropIncorrectlyReceived:count 0
scalar SingleCell_withSecondaryGnb.router.ppp[0].ppp packetDropIncorrectlyReceived:sum(packetBytes) 0
scalar SingleCell_withSecondaryGnb.router.ppp[0].ppp packetDropInterfaceDown:count 0
scalar SingleCell_withSecondaryGnb.router.ppp[0].ppp packetDropInterfaceDown:sum(packetBytes) 0
scalar SingleCell_withSecondaryGnb.router.ppp[0] packetDropInterfaceDown:count 0
scalar SingleCell_withSecondaryGnb.router.ppp[0] packetDropInterfaceDown:sum(packetBytes) 0
scalar SingleCell_withSecondaryGnb.router.ppp[0] packetDropNoCarrier:count 0
scalar SingleCell_withSecondaryGnb.router.ppp[0] packetDropNoCarrier:sum(packetBytes) 0
scalar SingleCell_withSecondaryGnb.router.ppp[1].queue queueLength:last 0
scalar SingleCell_withSecondaryGnb.router.ppp[1].queue queueLength:max 0
scalar SingleCell_withSecondaryGnb.router.ppp[1].queue queueLength:timeavg 0
scalar SingleCell_withSecondaryGnb.router.ppp[1].queue queueBitLength:last 0
scalar SingleCell_withSecondaryGnb.router.ppp[1].queue queueBitLength:max 0
scalar SingleCell_withSecondaryGnb.router.ppp[1].queue queueBitLength:timeavg 0
scalar SingleCell_withSecondaryGnb.router.ppp[1].queue outgoingPackets:count 10000
scalar SingleCell_withSecondaryGnb.router.ppp[1].queue outgoingPacketLengths:sum 5440000
scalar SingleCell_withSecondaryGnb.router.ppp[1].queue incomingPackets:count 10000
scalar SingleCell_withSecondaryGnb.router.ppp[1].queue incomingPacketLengths:sum 5440000
scalar SingleCell_withSecondaryGnb.router.ppp[1].queue droppedPacketsQueueOverflow:count 0
scalar SingleCell_withSecondaryGnb.router.ppp[1].queue droppedPacketLengthsQueueOverflow:sum 0
scalar SingleCell_withSecondaryGnb.router.ppp[1].ppp transmissionState:timeavg 6.0000000000002543e-05
scalar SingleCell_withSecondaryGnb.router.ppp[1].ppp rxPkOk:count 0
scalar SingleCell_withSecondaryGnb.router.ppp[1].ppp rxPkOk:sum(packetBytes) 0
scalar SingleCell_withSecondaryGnb.router.ppp[1].ppp txPk:count 10000
scalar SingleCell_withSecondaryGnb.router.ppp[1].ppp txPk:sum(packetBytes) 750000
scalar SingleCell_withSecondaryGnb.router.ppp[1].ppp rcvdPkFromHl:count 10000
scalar SingleCell_withSecondaryGnb.router.ppp[1].ppp rcvdPkFromHl:sum(packetBytes) 680000
scalar SingleCell_withSecondaryGnb.router.ppp[1].ppp passedUpPk:count 0
scalar SingleCell_withSecondaryGnb.router.ppp[1].ppp passedUpPk:sum(packetBytes) 0
scalar SingleCell_withSecondaryGnb.router.ppp[1].ppp packetDropIncorrectlyReceived:count 0
scalar SingleCell_withSecondaryGnb.router.ppp[1].ppp packetDropIncorrectlyReceived:sum(packetBytes) 0
scalar SingleCell_withSecondaryGnb.router.ppp[1].ppp packetDropInterfaceDown:count 0
scalar SingleCell_withSecondaryGnb.router.ppp[1].ppp packetDropInterfaceDown:sum(packetBytes) 0
scalar SingleCell_withSecondaryGnb.router.ppp[1] packetDropInterfaceDown:count 0
scalar SingleCell_withSecondaryGnb.router.ppp[1] packetDropInterfaceDown:sum(packetBytes) 0
scalar SingleCell_withSecondaryGnb.router.ppp[1] packetDropNoCarrier:count 0
scalar SingleCell_withSecondaryGnb.router.ppp[1] packetDropNoCarrier:sum(packetBytes) 0
scalar SingleCell_withSecondaryGnb.router.ipv4.ip packetDropAddressResolutionFailed:count 0
scalar SingleCell_withSecondaryGnb.router.ipv4.ip packetDropAddressResolutionFailed:sum(packetBytes) 0
scalar SingleCell_withSecondaryGnb.router.ipv4.ip packetDropHopLimitReached:count 0
scalar SingleCell_withSecondaryGnb.router.ipv4.ip packetDropHopLimitReached:sum(packetBytes) 0
scalar SingleCell_withSecondaryGnb.router.ipv4.ip packetDropForwardingDisabled:count 0
scalar SingleCell_withSecondaryGnb.router.ipv4.ip packetDropForwardingDisabled:sum(packetBytes) 0
scalar SingleCell_withSecondaryGnb.router.ipv4.ip packetDropNoInterfaceFound:count 0
scalar SingleCell_withSecondaryGnb.router.ipv4.ip packetDropNoInterfaceFound:sum(packetBytes) 0
scalar SingleCell_withSecondaryGnb.router.ipv4.ip packetDropNoRouteFound:count 0
scalar SingleCell_withSecondaryGnb.router.ipv4.ip packetDropNoRouteFound:sum(packetBytes) 0
scalar SingleCell_withSecondaryGnb.router.ipv4.ip packetDropUndefined:count 0
scalar SingleCell_withSecondaryGnb.router.ipv4.ip packetDropUndefined:sum(packetBytes) 0
scalar SingleCell_withSecondaryGnb.router.ipv4.arp arpResolutionFailed:count 0
scalar SingleCell_withSecondaryGnb.router.ipv4.arp arpResolutionCompleted:count 0
scalar SingleCell_withSecondaryGnb.router.ipv4.arp arpResolutionInitiated:count 0
scalar SingleCell_withSecondaryGnb.router.ipv4.arp arpReplySent:count 0
scalar SingleCell_withSecondaryGnb.router.ipv4.arp arpReplySent:sum(packetBytes) 0
scalar SingleCell_withSecondaryGnb.router.ipv4.arp arpRequestSent:count 0
scalar SingleCell_withSecondaryGnb.router.ipv4.arp arpRequestSent:sum(packetBytes) 0
scalar SingleCell_withSecondaryGnb.pgw.lo[0].lo rcvdPkFromHl:count 0
scalar SingleCell_withSecondaryGnb.pgw.lo[0].lo rcvdPkFromHl:sum(packetBytes) 0
scalar SingleCell_withSecondaryGnb.pgw.lo[0].lo passedUpPk:count 0
scalar SingleCell_withSecondaryGnb.pgw.lo[0].lo passedUpPk:sum(packetBytes) 0
scalar SingleCell_withSecondaryGnb.pgw.lo[0] packetDropInterfaceDown:count 0
scalar SingleCell_withSecondaryGnb.pgw.lo[0] packetDropInterfaceDown:sum(packetBytes) 0
scalar SingleCell_withSecondaryGnb.pgw.lo[0] packetDropNoCarrier:count 0
scalar SingleCell_withSecondaryGnb.pgw.lo[0] packetDropNoCarrier:sum(packetBytes) 0
scalar SingleCell_withSecondaryGnb.pgw.ppp[0].queue queueLength:last 0
scalar SingleCell_withSecondaryGnb.pgw.ppp[0].queue queueLength:max 0
scalar SingleCell_withSecondaryGnb.pgw.ppp[0].queue queueLength:timeavg 0
scalar SingleCell_withSecondaryGnb.pgw.ppp[0].queue queueBitLength:last 0
scalar SingleCell_withSecondaryGnb.pgw.ppp[0].queue queueBitLength:max 0
scalar SingleCell_withSecondaryGnb.pgw.ppp[0].queue queueBitLength:timeavg 0
scalar SingleCell_withSecondaryGnb.pgw.ppp[0].queue outgoingPackets:count 10000
scalar SingleCell_withSecondaryGnb.pgw.ppp[0].queue outgoingPacketLengths:sum 8320000
scalar SingleCell_withSecondaryGnb.pgw.ppp[0].queue incomingPackets:count 10000
scalar SingleCell_withSecondaryGnb.pgw.ppp[0].queue incomingPacketLengths:sum 8320000
scalar SingleCell_withSecondaryGnb.pgw.ppp[0].queue droppedPacketsQueueOverflow:count 0
scalar SingleCell_withSecondaryGnb.pgw.ppp[0].queue droppedPacketLengthsQueueOverflow:sum 0
scalar SingleCell_withSecondaryGnb.pgw.ppp[0].ppp transmissionState:timeavg 8.8800000000009341e-05
scalar SingleCell_withSecondaryGnb.pgw.ppp[0].ppp rxPkOk:count 0
scalar SingleCell_withSecondaryGnb.pgw.ppp[0].ppp rxPkOk:sum(packetBytes) 0
scalar SingleCell_withSecondaryGnb.pgw.ppp[0].ppp txPk:count 10000
scalar SingleCell_withSecondaryGnb.pgw.ppp[0].ppp txPk:sum(packetBytes) 1110000
scalar SingleCell_withSecondaryGnb.pgw.ppp[0].ppp rcvdPkFromHl:count 10000
scalar SingleCell_withSecondaryGnb.pgw.ppp[0].ppp rcvdPkFromHl:sum(packetBytes) 1040000
scalar SingleCell_withSecondaryGnb.pgw.ppp[0].ppp passedUpPk:count 0
scalar SingleCell_withSecondaryGnb.pgw.ppp[0].ppp passedUpPk:sum(packetBytes) 0
scalar SingleCell_withSecondaryGnb.pgw.ppp[0].ppp packetDropIncorrectlyReceived:count 0
scalar SingleCell_withSecondaryGnb.pgw.ppp[0].ppp packetDropIncorrectlyReceived:sum(packetBytes) 0
scalar SingleCell_withSecondaryGnb.pgw.ppp[0].ppp packetDropInterfaceDown:count 0
scalar SingleCell_withSecondaryGnb.pgw.ppp[0].ppp packetDropInterfaceDown:sum(packetBytes) 0
scalar SingleCell_withSecondaryGnb.pgw.ppp[0] packetDropInterfaceDown:count 0
scalar SingleCell_withSecondaryGnb.pgw.ppp[0] packetDropInterfaceDown:sum(packetBytes) 0
scalar SingleCell_withSecondaryGnb.pgw.ppp[0] packetDropNoCarrier:count 0
scalar SingleCell_withSecondaryGnb.pgw.ppp[0] packetDropNoCarrier:sum(packetBytes) 0
scalar SingleCell_withSecondaryGnb.pgw.ipv4.ip packetDropAddressResolutionFailed:count 0
scalar SingleCell_withSecondaryGnb.pgw.ipv4.ip packetDropAddressResolutionFailed:sum(packetBytes) 0
scalar SingleCell_withSecondaryGnb.pgw.ipv4.ip packetDropHopLimitReached:count 0
scalar SingleCell_withSecondaryGnb.pgw.ipv4.ip packetDropHopLimitReached:sum(packetBytes) 0
scalar SingleCell_withSecondaryGnb.pgw.ipv4.ip packetDropForwardingDisabled:count 0
scalar SingleCell_withSecondaryGnb.pgw.ipv4.ip packetDropForwardingDisabled:sum(packetBytes) 0
scalar SingleCell_withSecondaryGnb.pgw.ipv4.ip packetDropNoInterfaceFound:count 0
scalar SingleCell_withSecondaryGnb.pgw.ipv4.ip packetDropNoInterfaceFound:sum(packetBytes) 0
scalar SingleCell_withSecondaryGnb.pgw.ipv4.ip packetDropNoRouteFound:count 0
scalar SingleCell_withSecondaryGnb.pgw.ipv4.ip packetDropNoRouteFound:sum(packetBytes) 0
scalar SingleCell_withSecondaryGnb.pgw.ipv4.ip packetDropUndefined:count 0
scalar SingleCell_withSecondaryGnb.pgw.ipv4.ip packetDropUndefined:sum(packetBytes) 0
scalar SingleCell_withSecondaryGnb.pgw.ipv4.arp arpResolutionFailed:count 0
scalar SingleCell_withSecondaryGnb.pgw.ipv4.arp arpResolutionCompleted:count 0
scalar SingleCell_withSecondaryGnb.pgw.ipv4.arp arpResolutionInitiated:count 0
scalar SingleCell_withSecondaryGnb.pgw.ipv4.arp arpReplySent:count 0
scalar SingleCell_withSecondaryGnb.pgw.ipv4.arp arpReplySent:sum(packetBytes) 0
scalar SingleCell_withSecondaryGnb.pgw.ipv4.arp arpRequestSent:count 0
scalar SingleCell_withSecondaryGnb.pgw.ipv4.arp arpRequestSent:sum(packetBytes) 0
scalar SingleCell_withSecondaryGnb.pgw.pppIf.queue queueLength:last 0
scalar SingleCell_withSecondaryGnb.pgw.pppIf.queue queueLength:max 0
scalar SingleCell_withSecondaryGnb.pgw.pppIf.queue queueLength:timeavg 0
scalar SingleCell_withSecondaryGnb.pgw.pppIf.queue queueBitLength:last 0
scalar SingleCell_withSecondaryGnb.pgw.pppIf.queue queueBitLength:max 0
scalar SingleCell_withSecondaryGnb.pgw.pppIf.queue queueBitLength:timeavg 0
scalar SingleCell_withSecondaryGnb.pgw.pppIf.queue outgoingPackets:count 0
scalar SingleCell_withSecondaryGnb.pgw.pppIf.queue outgoingPacketLengths:sum 0
scalar SingleCell_withSecondaryGnb.pgw.pppIf.queue incomingPackets:count 0
scalar SingleCell_withSecondaryGnb.pgw.pppIf.queue incomingPacketLengths:sum 0
scalar SingleCell_withSecondaryGnb.pgw.pppIf.queue droppedPacketsQueueOverflow:count 0
scalar SingleCell_withSecondaryGnb.pgw.pppIf.queue droppedPacketLengthsQueueOverflow:sum 0
scalar SingleCell_withSecondaryGnb.pgw.pppIf.ppp transmissionState:timeavg 0
scalar SingleCell_withSecondaryGnb.pgw.pppIf.ppp rxPkOk:count 10000
scalar SingleCell_withSecondaryGnb.pgw.pppIf.ppp rxPkOk:sum(packetBytes) 750000
scalar SingleCell_withSecondaryGnb.pgw.pppIf.ppp txPk:count 0
scalar SingleCell_withSecondaryGnb.pgw.pppIf.ppp txPk:sum(packetBytes) 0
scalar SingleCell_withSecondaryGnb.pgw.pppIf.ppp rcvdPkFromHl:count 0
scalar SingleCell_withSecondaryGnb.pgw.pppIf.ppp rcvdPkFromHl:sum(packetBytes) 0
scalar SingleCell_withSecondaryGnb.pgw.pppIf.ppp passedUpPk:count 10000
scalar SingleCell_withSecondaryGnb.pgw.pppIf.ppp passedUpPk:sum(packetBytes) 680000
scalar SingleCell_withSecondaryGnb.pgw.pppIf.ppp packetDropIncorrectlyReceived:count 0
scalar SingleCell_withSecondaryGnb.pgw.pppIf.ppp packetDropIncorrectlyReceived:sum(packetBytes) 0
scalar SingleCell_withSecondaryGnb.pgw.pppIf.ppp packetDropInterfaceDown:count 0
scalar SingleCell_withSecondaryGnb.pgw.pppIf.ppp packetDropInterfaceDown:sum(packetBytes) 0
scalar SingleCell_withSecondaryGnb.pgw.pppIf packetDropInterfaceDown:count 0
scalar SingleCell_withSecondaryGnb.pgw.pppIf packetDropInterfaceDown:sum(packetBytes) 0
scalar SingleCell_withSecondaryGnb.pgw.pppIf packetDropNoCarrier:count 0
scalar SingleCell_withSecondaryGnb.pgw.pppIf packetDropNoCarrier:sum(packetBytes) 0
scalar SingleCell_withSecondaryGnb.pgw.udp packetReceived:count 0
scalar SingleCell_withSecondaryGnb.pgw.udp packetReceived:sum(packetBytes) 0
scalar SingleCell_withSecondaryGnb.pgw.udp packetSent:count 10000
scalar SingleCell_withSecondaryGnb.pgw.udp packetSent:sum(packetBytes) 840000
scalar SingleCell_withSecondaryGnb.pgw.udp passedUpPk:count 0
scalar SingleCell_withSecondaryGnb.pgw.udp droppedPkWrongPort:count 0
scalar SingleCell_withSecondaryGnb.pgw.udp droppedPkBadChecksum:count 0
scalar SingleCell_withSecondaryGnb.masterEnb.cellularNic.pdcp sentPacketToLowerLayer:count 5000
scalar SingleCell_withSecondaryGnb.masterEnb.cellularNic.pdcp sentPacketToLowerLayer:sum(packetBytes) 345000
scalar SingleCell_withSecondaryGnb.masterEnb.cellularNic.pdcp sentPacketToUpperLayer:count 0
scalar SingleCell_withSecondaryGnb.masterEnb.cellularNic.pdcp sentPacketToUpperLayer:sum(packetBytes) 0
scalar SingleCell_withSecondaryGnb.masterEnb.cellularNic.pdcp receivedPacketFromLowerLayer:count 0
scalar SingleCell_withSecondaryGnb.masterEnb.cellularNic.pdcp receivedPacketFromLowerLayer:sum(packetBytes) 0
scalar SingleCell_withSecondaryGnb.masterEnb.cellularNic.pdcp receivedPacketFromUpperLayer:count 10000
scalar SingleCell_withSecondaryGnb.masterEnb.cellularNic.pdcp receivedPacketFromUpperLayer:sum(packetBytes) 680000
scalar SingleCell_withSecondaryGnb.masterEnb.cellularNic.rlc.tm rlcPacketLossUl:mean -nan
scalar SingleCell_withSecondaryGnb.masterEnb.cellularNic.rlc.tm rlcPacketLossUl:sum 0
scalar SingleCell_withSecondaryGnb.masterEnb.cellularNic.rlc.tm rlcPacketLossDl:mean -nan
scalar SingleCell_withSecondaryGnb.masterEnb.cellularNic.rlc.tm rlcPacketLossDl:sum 0
scalar SingleCell_withSecondaryGnb.masterEnb.cellularNic.rlc.tm sentPacketToLowerLayer:count 0
scalar SingleCell_withSecondaryGnb.masterEnb.cellularNic.rlc.tm sentPacketToLowerLayer:sum(packetBytes) 0
scalar SingleCell_withSecondaryGnb.masterEnb.cellularNic.rlc.tm sentPacketToUpperLayer:count 0
scalar SingleCell_withSecondaryGnb.masterEnb.cellularNic.rlc.tm sentPacketToUpperLayer:sum(packetBytes) 0
scalar SingleCell_withSecondaryGnb.masterEnb.cellularNic.rlc.tm receivedPacketFromLowerLayer:count 0
scalar SingleCell_withSecondaryGnb.masterEnb.cellularNic.rlc.tm receivedPacketFromLowerLayer:sum(packetBytes) 0
scalar SingleCell_withSecondaryGnb.masterEnb.cellularNic.rlc.tm receivedPacketFromUpperLayer:count 0
scalar SingleCell_withSecondaryGnb.masterEnb.cellularNic.rlc.tm receivedPacketFromUpperLayer:sum(packetBytes) 0
scalar SingleCell_withSecondaryGnb.masterEnb.cellularNic.rlc.um rlcCellThroughputD2D:simu5g_rateavg -nan
scalar SingleCell_withSecondaryGnb.masterEnb.cellularNic.rlc.um rlcPduThroughputD2D:simu5g_rateavg -nan
scalar SingleCell_withSecondaryGnb.masterEnb.cellularNic.rlc.um rlcPduDelayD2D:mean -nan
scalar SingleCell_withSecondaryGnb.masterEnb.cellularNic.rlc.um rlcThroughputD2D:simu5g_rateavg -nan
scalar SingleCell_withSecondaryGnb.masterEnb.cellularNic.rlc.um rlcDelayD2D:mean -nan
scalar SingleCell_withSecondaryGnb.masterEnb.cellularNic.rlc.um rlcCellThroughputUl:simu5g_rateavg -nan
scalar SingleCell_withSecondaryGnb.masterEnb.cellularNic.rlc.um rlcCellThroughputDl:simu5g_rateavg 68432.544477308518
scalar SingleCell_withSecondaryGnb.masterEnb.cellularNic.rlc.um rlcPduThroughputUl:simu5g_rateavg -nan
scalar SingleCell_withSecondaryGnb.masterEnb.cellularNic.rlc.um rlcPduThroughputDl:simu5g_rateavg -nan
scalar SingleCell_withSecondaryGnb.masterEnb.cellularNic.rlc.um rlcPduDelayUl:mean -nan
scalar SingleCell_withSecondaryGnb.masterEnb.cellularNic.rlc.um rlcPduDelayDl:mean -nan
scalar SingleCell_withSecondaryGnb.masterEnb.cellularNic.rlc.um rlcThroughputUl:simu5g_rateavg -nan
scalar SingleCell_withSecondaryGnb.masterEnb.cellularNic.rlc.um rlcThroughputDl:simu5g_rateavg -nan
scalar SingleCell_withSecondaryGnb.masterEnb.cellularNic.rlc.um rlcDelayUl:mean -nan
scalar SingleCell_withSecondaryGnb.masterEnb.cellularNic.rlc.um rlcDelayDl:mean -nan
scalar SingleCell_withSecondaryGnb.masterEnb.cellularNic.rlc.um sentPacketToLowerLayer:count 5000
scalar SingleCell_withSecondaryGnb.masterEnb.cellularNic.rlc.um sentPacketToLowerLayer:sum(packetBytes) 355000
scalar SingleCell_withSecondaryGnb.masterEnb.cellularNic.rlc.um sentPacketToUpperLayer:count 0
scalar SingleCell_withSecondaryGnb.masterEnb.cellularNic.rlc.um sentPacketToUpperLayer:sum(packetBytes) 0
scalar SingleCell_withSecondaryGnb.masterEnb.cellularNic.rlc.um receivedPacketFromLowerLayer:count 0
scalar SingleCell_withSecondaryGnb.masterEnb.cellularNic.rlc.um receivedPacketFromLowerLayer:sum(packetBytes) 0
scalar SingleCell_withSecondaryGnb.masterEnb.cellularNic.rlc.um receivedPacketFromUpperLayer:count 5000
scalar SingleCell_withSecondaryGnb.masterEnb.cellularNic.rlc.um receivedPacketFromUpperLayer:sum(packetBytes) 345000
scalar SingleCell_withSecondaryGnb.masterEnb.cellularNic.rlc.am rlcPacketLossTotal:mean -nan
scalar SingleCell_withSecondaryGnb.masterEnb.cellularNic.rlc.am rlcCellThroughputUl:simu5g_rateavg -nan
scalar SingleCell_withSecondaryGnb.masterEnb.cellularNic.rlc.am rlcCellThroughputDl:simu5g_rateavg -nan
scalar SingleCell_withSecondaryGnb.masterEnb.cellularNic.rlc.am rlcPduThroughputUl:simu5g_rateavg -nan
scalar SingleCell_withSecondaryGnb.masterEnb.cellularNic.rlc.am rlcPduThroughputDl:simu5g_rateavg -nan
scalar SingleCell_withSecondaryGnb.masterEnb.cellularNic.rlc.am rlcPduDelayUl:mean -nan
scalar SingleCell_withSecondaryGnb.masterEnb.cellularNic.rlc.am rlcPduDelayDl:mean -nan
scalar SingleCell_withSecondaryGnb.masterEnb.cellularNic.rlc.am rlcThroughputUl:simu5g_rateavg -nan
scalar SingleCell_withSecondaryGnb.masterEnb.cellularNic.rlc.am rlcThroughputDl:simu5g_rateavg -nan
scalar SingleCell_withSecondaryGnb.masterEnb.cellularNic.rlc.am rlcDelayUl:mean -nan
scalar SingleCell_withSecondaryGnb.masterEnb.cellularNic.rlc.am rlcDelayDl:mean -nan
scalar SingleCell_withSecondaryGnb.masterEnb.cellularNic.rlc.am rlcPduPacketLossUl:mean -nan
scalar SingleCell_withSecondaryGnb.masterEnb.cellularNic.rlc.am rlcPduPacketLossDl:mean -nan
scalar SingleCell_withSecondaryGnb.masterEnb.cellularNic.rlc.am rlcPacketLossUl:mean -nan
scalar SingleCell_withSecondaryGnb.masterEnb.cellularNic.rlc.am rlcPacketLossDl:mean -nan
scalar SingleCell_withSecondaryGnb.masterEnb.cellularNic.rlc.am rlcCellPacketLossUl:mean -nan
scalar SingleCell_withSecondaryGnb.masterEnb.cellularNic.rlc.am rlcCellPacketLossDl:mean -nan
scalar SingleCell_withSecondaryGnb.masterEnb.cellularNic.mac avgServedBlocksUl:mean 0
scalar SingleCell_withSecondaryGnb.masterEnb.cellularNic.mac avgServedBlocksDl:mean 0.50149999999999995
scalar SingleCell_withSecondaryGnb.masterEnb.cellularNic.mac macCellPacketLossD2D:mean -nan
scalar SingleCell_withSecondaryGnb.masterEnb.cellularNic.mac macCellThroughputD2D:simu5g_rateavg -nan
scalar SingleCell_withSecondaryGnb.masterEnb.cellularNic.mac harqTxAttemptsUl:mean -nan
scalar SingleCell_withSecondaryGnb.masterEnb.cellularNic.mac harqTxAttemptsDl:mean -nan
scalar SingleCell_withSecondaryGnb.masterEnb.cellularNic.mac harqErrorRate_4th_Ul:mean -nan
scalar SingleCell_withSecondaryGnb.masterEnb.cellularNic.mac harqErrorRate_4th_Dl:mean -nan
scalar SingleCell_withSecondaryGnb.masterEnb.cellularNic.mac harqErrorRate_3rd_Ul:mean -nan
scalar SingleCell_withSecondaryGnb.masterEnb.cellularNic.mac harqErrorRate_3rd_Dl:mean -nan
scalar SingleCell_withSecondaryGnb.masterEnb.cellularNic.mac harqErrorRate_2nd_Ul:mean -nan
scalar SingleCell_withSecondaryGnb.masterEnb.cellularNic.mac harqErrorRate_2nd_Dl:mean -nan
scalar SingleCell_withSecondaryGnb.masterEnb.cellularNic.mac harqErrorRate_1st_Ul:mean -nan
scalar SingleCell_withSecondaryGnb.masterEnb.cellularNic.mac harqErrorRate_1st_Dl:mean -nan
scalar SingleCell_withSecondaryGnb.masterEnb.cellularNic.mac harqErrorRateUl:mean -nan
scalar SingleCell_withSecondaryGnb.masterEnb.cellularNic.mac harqErrorRateDl:mean -nan
scalar SingleCell_withSecondaryGnb.masterEnb.cellularNic.mac macCellPacketLossUl:mean -nan
scalar SingleCell_withSecondaryGnb.masterEnb.cellularNic.mac macCellPacketLossDl:mean 0
scalar SingleCell_withSecondaryGnb.masterEnb.cellularNic.mac macPacketLossUl:mean -nan
scalar SingleCell_withSecondaryGnb.masterEnb.cellularNic.mac macPacketLossDl:mean -nan
scalar SingleCell_withSecondaryGnb.masterEnb.cellularNic.mac macThroughputUl:simu5g_rateavg -nan
scalar SingleCell_withSecondaryGnb.masterEnb.cellularNic.mac macThroughputDl:simu5g_rateavg -nan
scalar SingleCell_withSecondaryGnb.masterEnb.cellularNic.mac macDelayUl:mean -nan
scalar SingleCell_withSecondaryGnb.masterEnb.cellularNic.mac macDelayDl:mean -nan
scalar SingleCell_withSecondaryGnb.masterEnb.cellularNic.mac macCellThroughputUl:simu5g_rateavg -nan
scalar SingleCell_withSecondaryGnb.masterEnb.cellularNic.mac macCellThroughputDl:simu5g_rateavg 72399.648504978657
scalar SingleCell_withSecondaryGnb.masterEnb.cellularNic.mac sentPacketToLowerLayer:count 5014
scalar SingleCell_withSecondaryGnb.masterEnb.cellularNic.mac sentPacketToLowerLayer:sum(packetBytes) 366022
scalar SingleCell_withSecondaryGnb.masterEnb.cellularNic.mac sentPacketToUpperLayer:count 5000
scalar SingleCell_withSecondaryGnb.masterEnb.cellularNic.mac sentPacketToUpperLayer:sum(packetBytes) 5000
scalar SingleCell_withSecondaryGnb.masterEnb.cellularNic.mac receivedPacketFromLowerLayer:count 13349
scalar SingleCell_withSecondaryGnb.masterEnb.cellularNic.mac receivedPacketFromLowerLayer:sum(packetBytes) 13349
scalar SingleCell_withSecondaryGnb.masterEnb.cellularNic.mac receivedPacketFromUpperLayer:count 10000
scalar SingleCell_withSecondaryGnb.masterEnb.cellularNic.mac receivedPacketFromUpperLayer:sum(packetBytes) 700000
scalar SingleCell_withSecondaryGnb.masterEnb.cellularNic.mac macBufferOverFlowD2D:mean -nan
scalar SingleCell_withSecondaryGnb.masterEnb.cellularNic.mac macBufferOverFlowUl:mean -nan
scalar SingleCell_withSecondaryGnb.masterEnb.cellularNic.mac macBufferOverFlowDl:mean -nan
scalar SingleCell_withSecondaryGnb.masterEnb.cellularNic.channelModel[0] measuredSinrUl:mean -nan
scalar SingleCell_withSecondaryGnb.masterEnb.cellularNic.channelModel[0] measuredSinrDl:mean -nan
scalar SingleCell_withSecondaryGnb.masterEnb.cellularNic.channelModel[0] rcvdSinrD2D:mean -nan
scalar SingleCell_withSecondaryGnb.masterEnb.cellularNic.channelModel[0] rcvdSinrUl:mean -nan
scalar SingleCell_withSecondaryGnb.masterEnb.cellularNic.channelModel[0] rcvdSinrDl:mean -nan
scalar SingleCell_withSecondaryGnb.masterEnb.cellularNic packetDropInterfaceDown:count 0
scalar SingleCell_withSecondaryGnb.masterEnb.cellularNic packetDropInterfaceDown:sum(packetBytes) 0
scalar SingleCell_withSecondaryGnb.masterEnb.cellularNic packetDropNoCarrier:count 0
scalar SingleCell_withSecondaryGnb.masterEnb.cellularNic packetDropNoCarrier:sum(packetBytes) 0
scalar SingleCell_withSecondaryGnb.masterEnb.pppIf.queue queueLength:last 0
scalar SingleCell_withSecondaryGnb.masterEnb.pppIf.queue queueLength:max 0
scalar SingleCell_withSecondaryGnb.masterEnb.pppIf.queue queueLength:timeavg 0
scalar SingleCell_withSecondaryGnb.masterEnb.pppIf.queue queueBitLength:last 0
scalar SingleCell_withSecondaryGnb.masterEnb.pppIf.queue queueBitLength:max 0
scalar SingleCell_withSecondaryGnb.masterEnb.pppIf.queue queueBitLength:timeavg 0
scalar SingleCell_withSecondaryGnb.masterEnb.pppIf.queue outgoingPackets:count 0
scalar SingleCell_withSecondaryGnb.masterEnb.pppIf.queue outgoingPacketLengths:sum 0
scalar SingleCell_withSecondaryGnb.masterEnb.pppIf.queue incomingPackets:count 0
scalar SingleCell_withSecondaryGnb.masterEnb.pppIf.queue incomingPacketLengths:sum 0
scalar SingleCell_withSecondaryGnb.masterEnb.pppIf.queue droppedPacketsQueueOverflow:count 0
scalar SingleCell_withSecondaryGnb.masterEnb.pppIf.queue droppedPacketLengthsQueueOverflow:sum 0
scalar SingleCell_withSecondaryGnb.masterEnb.pppIf.ppp transmissionState:timeavg 0
scalar SingleCell_withSecondaryGnb.masterEnb.pppIf.ppp rxPkOk:count 10000
scalar SingleCell_withSecondaryGnb.masterEnb.pppIf.ppp rxPkOk:sum(packetBytes) 1110000
scalar SingleCell_withSecondaryGnb.masterEnb.pppIf.ppp txPk:count 0
scalar SingleCell_withSecondaryGnb.masterEnb.pppIf.ppp txPk:sum(packetBytes) 0
scalar SingleCell_withSecondaryGnb.masterEnb.pppIf.ppp rcvdPkFromHl:count 0
scalar SingleCell_withSecondaryGnb.masterEnb.pppIf.ppp rcvdPkFromHl:sum(packetBytes) 0
scalar SingleCell_withSecondaryGnb.masterEnb.pppIf.ppp passedUpPk:count 10000
scalar SingleCell_withSecondaryGnb.masterEnb.pppIf.ppp passedUpPk:sum(packetBytes) 1040000
scalar SingleCell_withSecondaryGnb.masterEnb.pppIf.ppp packetDropIncorrectlyReceived:count 0
scalar SingleCell_withSecondaryGnb.masterEnb.pppIf.ppp packetDropIncorrectlyReceived:sum(packetBytes) 0
scalar SingleCell_withSecondaryGnb.masterEnb.pppIf.ppp packetDropInterfaceDown:count 0
scalar SingleCell_withSecondaryGnb.masterEnb.pppIf.ppp packetDropInterfaceDown:sum(packetBytes) 0
scalar SingleCell_withSecondaryGnb.masterEnb.pppIf packetDropInterfaceDown:count 0
scalar SingleCell_withSecondaryGnb.masterEnb.pppIf packetDropInterfaceDown:sum(packetBytes) 0
scalar SingleCell_withSecondaryGnb.masterEnb.pppIf packetDropNoCarrier:count 0
scalar SingleCell_withSecondaryGnb.masterEnb.pppIf packetDropNoCarrier:sum(packetBytes) 0
scalar SingleCell_withSecondaryGnb.masterEnb.x2ppp[0].queue queueLength:last 0
scalar SingleCell_withSecondaryGnb.masterEnb.x2ppp[0].queue queueLength:max 0
scalar SingleCell_withSecondaryGnb.masterEnb.x2ppp[0].queue queueLength:timeavg 0
scalar SingleCell_withSecondaryGnb.masterEnb.x2ppp[0].queue queueBitLength:last 0
scalar SingleCell_withSecondaryGnb.masterEnb.x2ppp[0].queue queueBitLength:max 0
scalar SingleCell_withSecondaryGnb.masterEnb.x2ppp[0].queue queueBitLength:timeavg 0
scalar SingleCell_withSecondaryGnb.masterEnb.x2ppp[0].queue outgoingPackets:count 5004
scalar SingleCell_withSecondaryGnb.masterEnb.x2ppp[0].queue outgoingPacketLengths:sum 4363328
scalar SingleCell_withSecondaryGnb.masterEnb.x2ppp[0].queue incomingPackets:count 5004
scalar SingleCell_withSecondaryGnb.masterEnb.x2ppp[0].queue incomingPacketLengths:sum 4363328
scalar SingleCell_withSecondaryGnb.masterEnb.x2ppp[0].queue droppedPacketsQueueOverflow:count 0
scalar SingleCell_withSecondaryGnb.masterEnb.x2ppp[0].queue droppedPacketLengthsQueueOverflow:sum 0
scalar SingleCell_withSecondaryGnb.masterEnb.x2ppp[0].ppp transmissionState:timeavg 4.6435519999995102e-05
scalar SingleCell_withSecondaryGnb.masterEnb.x2ppp[0].ppp rxPkOk:count 4
scalar SingleCell_withSecondaryGnb.masterEnb.x2ppp[0].ppp rxPkOk:sum(packetBytes) 444
scalar SingleCell_withSecondaryGnb.masterEnb.x2ppp[0].ppp txPk:count 5004
scalar SingleCell_withSecondaryGnb.masterEnb.x2ppp[0].ppp txPk:sum(packetBytes) 580444
scalar SingleCell_withSecondaryGnb.masterEnb.x2ppp[0].ppp rcvdPkFromHl:count 5004
scalar SingleCell_withSecondaryGnb.masterEnb.x2ppp[0].ppp rcvdPkFromHl:sum(packetBytes) 545416
scalar SingleCell_withSecondaryGnb.masterEnb.x2ppp[0].ppp passedUpPk:count 4
scalar SingleCell_withSecondaryGnb.masterEnb.x2ppp[0].ppp passedUpPk:sum(packetBytes) 416
scalar SingleCell_withSecondaryGnb.masterEnb.x2ppp[0].ppp packetDropIncorrectlyReceived:count 0
scalar SingleCell_withSecondaryGnb.masterEnb.x2ppp[0].ppp packetDropIncorrectlyReceived:sum(packetBytes) 0
scalar SingleCell_withSecondaryGnb.masterEnb.x2ppp[0].ppp packetDropInterfaceDown:count 0
scalar SingleCell_withSecondaryGnb.masterEnb.x2ppp[0].ppp packetDropInterfaceDown:sum(packetBytes) 0
scalar SingleCell_withSecondaryGnb.masterEnb.x2ppp[0] packetDropInterfaceDown:count 0
scalar SingleCell_withSecondaryGnb.masterEnb.x2ppp[0] packetDropInterfaceDown:sum(packetBytes) 0
scalar SingleCell_withSecondaryGnb.masterEnb.x2ppp[0] packetDropNoCarrier:count 0
scalar SingleCell_withSecondaryGnb.masterEnb.x2ppp[0] packetDropNoCarrier:sum(packetBytes) 0
scalar SingleCell_withSecondaryGnb.masterEnb.pppMEHostIf.queue queueLength:last 0
scalar SingleCell_withSecondaryGnb.masterEnb.pppMEHostIf.queue queueLength:max 0
scalar SingleCell_withSecondaryGnb.masterEnb.pppMEHostIf.queue queueLength:timeavg 0
scalar SingleCell_withSecondaryGnb.masterEnb.pppMEHostIf.queue queueBitLength:last 0
scalar SingleCell_withSecondaryGnb.masterEnb.pppMEHostIf.queue queueBitLength:max 0
scalar SingleCell_withSecondaryGnb.masterEnb.pppMEHostIf.queue queueBitLength:timeavg 0
scalar SingleCell_withSecondaryGnb.masterEnb.pppMEHostIf.queue outgoingPackets:count 0
scalar SingleCell_withSecondaryGnb.masterEnb.pppMEHostIf.queue outgoingPacketLengths:sum 0
scalar SingleCell_withSecondaryGnb.masterEnb.pppMEHostIf.queue incomingPackets:count 0
scalar SingleCell_withSecondaryGnb.masterEnb.pppMEHostIf.queue incomingPacketLengths:sum 0
scalar SingleCell_withSecondaryGnb.masterEnb.pppMEHostIf.queue droppedPacketsQueueOverflow:count 0
scalar SingleCell_withSecondaryGnb.masterEnb.pppMEHostIf.queue droppedPacketLengthsQueueOverflow:sum 0
scalar SingleCell_withSecondaryGnb.masterEnb.pppMEHostIf.ppp transmissionState:timeavg 0
scalar SingleCell_withSecondaryGnb.masterEnb.pppMEHostIf.ppp rxPkOk:count 0
scalar SingleCell_withSecondaryGnb.masterEnb.pppMEHostIf.ppp rxPkOk:sum(packetBytes) 0
scalar SingleCell_withSecondaryGnb.masterEnb.pppMEHostIf.ppp txPk:count 0
scalar SingleCell_withSecondaryGnb.masterEnb.pppMEHostIf.ppp txPk:sum(packetBytes) 0
scalar SingleCell_withSecondaryGnb.masterEnb.pppMEHostIf.ppp rcvdPkFromHl:count 0
scalar SingleCell_withSecondaryGnb.masterEnb.pppMEHostIf.ppp rcvdPkFromHl:sum(packetBytes) 0
scalar SingleCell_withSecondaryGnb.masterEnb.pppMEHostIf.ppp passedUpPk:count 0
scalar SingleCell_withSecondaryGnb.masterEnb.pppMEHostIf.ppp passedUpPk:sum(packetBytes) 0
scalar SingleCell_withSecondaryGnb.masterEnb.pppMEHostIf.ppp packetDropIncorrectlyReceived:count 0
scalar SingleCell_withSecondaryGnb.masterEnb.pppMEHostIf.ppp packetDropIncorrectlyReceived:sum(packetBytes) 0
scalar SingleCell_withSecondaryGnb.masterEnb.pppMEHostIf.ppp packetDropInterfaceDown:count 0
scalar SingleCell_withSecondaryGnb.masterEnb.pppMEHostIf.ppp packetDropInterfaceDown:sum(packetBytes) 0
scalar SingleCell_withSecondaryGnb.masterEnb.pppMEHostIf packetDropInterfaceDown:count 0
scalar SingleCell_withSecondaryGnb.masterEnb.pppMEHostIf packetDropInterfaceDown:sum(packetBytes) 0
scalar SingleCell_withSecondaryGnb.masterEnb.pppMEHostIf packetDropNoCarrier:count 0
scalar SingleCell_withSecondaryGnb.masterEnb.pppMEHostIf packetDropNoCarrier:sum(packetBytes) 0
scalar SingleCell_withSecondaryGnb.masterEnb.ipv4.ip packetDropAddressResolutionFailed:count 0
scalar SingleCell_withSecondaryGnb.masterEnb.ipv4.ip packetDropAddressResolutionFailed:sum(packetBytes) 0
scalar SingleCell_withSecondaryGnb.masterEnb.ipv4.ip packetDropHopLimitReached:count 0
scalar SingleCell_withSecondaryGnb.masterEnb.ipv4.ip packetDropHopLimitReached:sum(packetBytes) 0
scalar SingleCell_withSecondaryGnb.masterEnb.ipv4.ip packetDropForwardingDisabled:count 0
scalar SingleCell_withSecondaryGnb.masterEnb.ipv4.ip packetDropForwardingDisabled:sum(packetBytes) 0
scalar SingleCell_withSecondaryGnb.masterEnb.ipv4.ip packetDropNoInterfaceFound:count 0
scalar SingleCell_withSecondaryGnb.masterEnb.ipv4.ip packetDropNoInterfaceFound:sum(packetBytes) 0
scalar SingleCell_withSecondaryGnb.masterEnb.ipv4.ip packetDropNoRouteFound:count 0
scalar SingleCell_withSecondaryGnb.masterEnb.ipv4.ip packetDropNoRouteFound:sum(packetBytes) 0
scalar SingleCell_withSecondaryGnb.masterEnb.ipv4.ip packetDropUndefined:count 0
scalar SingleCell_withSecondaryGnb.masterEnb.ipv4.ip packetDropUndefined:sum(packetBytes) 0
scalar SingleCell_withSecondaryGnb.masterEnb.ipv4.arp arpResolutionFailed:count 0
scalar SingleCell_withSecondaryGnb.masterEnb.ipv4.arp arpResolutionCompleted:count 0
scalar SingleCell_withSecondaryGnb.masterEnb.ipv4.arp arpResolutionInitiated:count 0
scalar SingleCell_withSecondaryGnb.masterEnb.ipv4.arp arpReplySent:count 0
scalar SingleCell_withSecondaryGnb.masterEnb.ipv4.arp arpReplySent:sum(packetBytes) 0
scalar SingleCell_withSecondaryGnb.masterEnb.ipv4.arp arpRequestSent:count 0
scalar SingleCell_withSecondaryGnb.masterEnb.ipv4.arp arpRequestSent:sum(packetBytes) 0
scalar SingleCell_withSecondaryGnb.masterEnb.udp packetReceived:count 10000
scalar SingleCell_withSecondaryGnb.masterEnb.udp packetReceived:sum(packetBytes) 840000
scalar SingleCell_withSecondaryGnb.masterEnb.udp packetSent:count 5000
scalar SingleCell_withSecondaryGnb.masterEnb.udp packetSent:sum(packetBytes) 445000
scalar SingleCell_withSecondaryGnb.masterEnb.udp passedUpPk:count 10000
scalar SingleCell_withSecondaryGnb.masterEnb.udp droppedPkWrongPort:count 0
scalar SingleCell_withSecondaryGnb.masterEnb.udp droppedPkBadChecksum:count 0
scalar SingleCell_withSecondaryGnb.masterEnb.x2App[0].client packetReceived:count 0
scalar SingleCell_withSecondaryGnb.masterEnb.x2App[0].client packetReceived:sum(packetBytes) 0
scalar SingleCell_withSecondaryGnb.masterEnb.x2App[0].client packetSent:count 0
scalar SingleCell_withSecondaryGnb.masterEnb.x2App[0].client packetSent:sum(packetBytes) 0
scalar SingleCell_withSecondaryGnb.masterEnb.x2App[0].client echoedPk:count 0
scalar SingleCell_withSecondaryGnb.masterEnb.x2App[0].client echoedPk:sum(packetBytes) 0
scalar SingleCell_withSecondaryGnb.masterEnb.x2App[0].server "bytes rcvd" 0
scalar SingleCell_withSecondaryGnb.masterEnb.x2App[0].server throughput -nan
scalar SingleCell_withSecondaryGnb.secondaryGnb.cellularNic.pdcp sentPacketToLowerLayer:count 5000
scalar SingleCell_withSecondaryGnb.secondaryGnb.cellularNic.pdcp sentPacketToLowerLayer:sum(packetBytes) 345000
scalar SingleCell_withSecondaryGnb.secondaryGnb.cellularNic.pdcp sentPacketToUpperLayer:count 0
scalar SingleCell_withSecondaryGnb.secondaryGnb.cellularNic.pdcp sentPacketToUpperLayer:sum(packetBytes) 0
scalar SingleCell_withSecondaryGnb.secondaryGnb.cellularNic.pdcp receivedPacketFromLowerLayer:count 0
scalar SingleCell_withSecondaryGnb.secondaryGnb.cellularNic.pdcp receivedPacketFromLowerLayer:sum(packetBytes) 0
scalar SingleCell_withSecondaryGnb.secondaryGnb.cellularNic.pdcp receivedPacketFromUpperLayer:count 0
scalar SingleCell_withSecondaryGnb.secondaryGnb.cellularNic.pdcp receivedPacketFromUpperLayer:sum(packetBytes) 0
scalar SingleCell_withSecondaryGnb.secondaryGnb.cellularNic.rlc.tm rlcPacketLossUl:mean -nan
scalar SingleCell_withSecondaryGnb.secondaryGnb.cellularNic.rlc.tm rlcPacketLossUl:sum 0
scalar SingleCell_withSecondaryGnb.secondaryGnb.cellularNic.rlc.tm rlcPacketLossDl:mean -nan
scalar SingleCell_withSecondaryGnb.secondaryGnb.cellularNic.rlc.tm rlcPacketLossDl:sum 0
scalar SingleCell_withSecondaryGnb.secondaryGnb.cellularNic.rlc.tm sentPacketToLowerLayer:count 0
scalar SingleCell_withSecondaryGnb.secondaryGnb.cellularNic.rlc.tm sentPacketToLowerLayer:sum(packetBytes) 0
scalar SingleCell_withSecondaryGnb.secondaryGnb.cellularNic.rlc.tm sentPacketToUpperLayer:count 0
scalar SingleCell_withSecondaryGnb.secondaryGnb.cellularNic.rlc.tm sentPacketToUpperLayer:sum(packetBytes) 0
scalar SingleCell_withSecondaryGnb.secondaryGnb.cellularNic.rlc.tm receivedPacketFromLowerLayer:count 0
scalar SingleCell_withSecondaryGnb.secondaryGnb.cellularNic.rlc.tm receivedPacketFromLowerLayer:sum(packetBytes) 0
scalar SingleCell_withSecondaryGnb.secondaryGnb.cellularNic.rlc.tm receivedPacketFromUpperLayer:count 0
scalar SingleCell_withSecondaryGnb.secondaryGnb.cellularNic.rlc.tm receivedPacketFromUpperLayer:sum(packetBytes) 0
scalar SingleCell_withSecondaryGnb.secondaryGnb.cellularNic.rlc.um rlcCellThroughputD2D:simu5g_rateavg -nan
scalar SingleCell_withSecondaryGnb.secondaryGnb.cellularNic.rlc.um rlcPduThroughputD2D:simu5g_rateavg -nan
scalar SingleCell_withSecondaryGnb.secondaryGnb.cellularNic.rlc.um rlcPduDelayD2D:mean -nan
scalar SingleCell_withSecondaryGnb.secondaryGnb.cellularNic.rlc.um rlcThroughputD2D:simu5g_rateavg -nan
scalar SingleCell_withSecondaryGnb.secondaryGnb.cellularNic.rlc.um rlcDelayD2D:mean -nan
scalar SingleCell_withSecondaryGnb.secondaryGnb.cellularNic.rlc.um rlcCellThroughputUl:simu5g_rateavg -nan
scalar SingleCell_withSecondaryGnb.secondaryGnb.cellularNic.rlc.um rlcCellThroughputDl:simu5g_rateavg 68416.087709429063
scalar SingleCell_withSecondaryGnb.secondaryGnb.cellularNic.rlc.um rlcPduThroughputUl:simu5g_rateavg -nan
scalar SingleCell_withSecondaryGnb.secondaryGnb.cellularNic.rlc.um rlcPduThroughputDl:simu5g_rateavg -nan
scalar SingleCell_withSecondaryGnb.secondaryGnb.cellularNic.rlc.um rlcPduDelayUl:mean -nan
scalar SingleCell_withSecondaryGnb.secondaryGnb.cellularNic.rlc.um rlcPduDelayDl:mean -nan
scalar SingleCell_withSecondaryGnb.secondaryGnb.cellularNic.rlc.um rlcThroughputUl:simu5g_rateavg -nan
scalar SingleCell_withSecondaryGnb.secondaryGnb.cellularNic.rlc.um rlcThroughputDl:simu5g_rateavg -nan
scalar SingleCell_withSecondaryGnb.secondaryGnb.cellularNic.rlc.um rlcDelayUl:mean -nan
scalar SingleCell_withSecondaryGnb.secondaryGnb.cellularNic.rlc.um rlcDelayDl:mean -nan
scalar SingleCell_withSecondaryGnb.secondaryGnb.cellularNic.rlc.um sentPacketToLowerLayer:count 5000
scalar SingleCell_withSecondaryGnb.secondaryGnb.cellularNic.rlc.um sentPacketToLowerLayer:sum(packetBytes) 355000
scalar SingleCell_withSecondaryGnb.secondaryGnb.cellularNic.rlc.um sentPacketToUpperLayer:count 0
scalar SingleCell_withSecondaryGnb.secondaryGnb.cellularNic.rlc.um sentPacketToUpperLayer:sum(packetBytes) 0
scalar SingleCell_withSecondaryGnb.secondaryGnb.cellularNic.rlc.um receivedPacketFromLowerLayer:count 0
scalar SingleCell_withSecondaryGnb.secondaryGnb.cellularNic.rlc.um receivedPacketFromLowerLayer:sum(packetBytes) 0
scalar SingleCell_withSecondaryGnb.secondaryGnb.cellularNic.rlc.um receivedPacketFromUpperLayer:count 5000
scalar SingleCell_withSecondaryGnb.secondaryGnb.cellularNic.rlc.um receivedPacketFromUpperLayer:sum(packetBytes) 345000
scalar SingleCell_withSecondaryGnb.secondaryGnb.cellularNic.rlc.am rlcPacketLossTotal:mean -nan
scalar SingleCell_withSecondaryGnb.secondaryGnb.cellularNic.rlc.am rlcCellThroughputUl:simu5g_rateavg -nan
scalar SingleCell_withSecondaryGnb.secondaryGnb.cellularNic.rlc.am rlcCellThroughputDl:simu5g_rateavg -nan
scalar SingleCell_withSecondaryGnb.secondaryGnb.cellularNic.rlc.am rlcPduThroughputUl:simu5g_rateavg -nan
scalar SingleCell_withSecondaryGnb.secondaryGnb.cellularNic.rlc.am rlcPduThroughputDl:simu5g_rateavg -nan
scalar SingleCell_withSecondaryGnb.secondaryGnb.cellularNic.rlc.am rlcPduDelayUl:mean -nan
scalar SingleCell_withSecondaryGnb.secondaryGnb.cellularNic.rlc.am rlcPduDelayDl:mean -nan
scalar SingleCell_withSecondaryGnb.secondaryGnb.cellularNic.rlc.am rlcThroughputUl:simu5g_rateavg -nan
scalar SingleCell_withSecondaryGnb.secondaryGnb.cellularNic.rlc.am rlcThroughputDl:simu5g_rateavg -nan
scalar SingleCell_withSecondaryGnb.secondaryGnb.cellularNic.rlc.am rlcDelayUl:mean -nan
scalar SingleCell_withSecondaryGnb.secondaryGnb.cellularNic.rlc.am rlcDelayDl:mean -nan
scalar SingleCell_withSecondaryGnb.secondaryGnb.cellularNic.rlc.am rlcPduPacketLossUl:mean -nan
scalar SingleCell_withSecondaryGnb.secondaryGnb.cellularNic.rlc.am rlcPduPacketLossDl:mean -nan
scalar SingleCell_withSecondaryGnb.secondaryGnb.cellularNic.rlc.am rlcPacketLossUl:mean -nan
scalar SingleCell_withSecondaryGnb.secondaryGnb.cellularNic.rlc.am rlcPacketLossDl:mean -nan
scalar SingleCell_withSecondaryGnb.secondaryGnb.cellularNic.rlc.am rlcCellPacketLossUl:mean -nan
scalar SingleCell_withSecondaryGnb.secondaryGnb.cellularNic.rlc.am rlcCellPacketLossDl:mean -nan
scalar SingleCell_withSecondaryGnb.secondaryGnb.cellularNic.mac avgServedBlocksUl:mean 0
scalar SingleCell_withSecondaryGnb.secondaryGnb.cellularNic.mac avgServedBlocksDl:mean 0.50539999999999996
scalar SingleCell_withSecondaryGnb.secondaryGnb.cellularNic.mac macCellPacketLossD2D:mean -nan
scalar SingleCell_withSecondaryGnb.secondaryGnb.cellularNic.mac macCellThroughputD2D:simu5g_rateavg -nan
scalar SingleCell_withSecondaryGnb.secondaryGnb.cellularNic.mac harqTxAttemptsUl:mean -nan
scalar SingleCell_withSecondaryGnb.secondaryGnb.cellularNic.mac harqTxAttemptsDl:mean -nan
scalar SingleCell_withSecondaryGnb.secondaryGnb.cellularNic.mac harqErrorRate_4th_Ul:mean -nan
scalar SingleCell_withSecondaryGnb.secondaryGnb.cellularNic.mac harqErrorRate_4th_Dl:mean -nan
scalar SingleCell_withSecondaryGnb.secondaryGnb.cellularNic.mac harqErrorRate_3rd_Ul:mean -nan
scalar SingleCell_withSecondaryGnb.secondaryGnb.cellularNic.mac harqErrorRate_3rd_Dl:mean -nan
scalar SingleCell_withSecondaryGnb.secondaryGnb.cellularNic.mac harqErrorRate_2nd_Ul:mean -nan
scalar SingleCell_withSecondaryGnb.secondaryGnb.cellularNic.mac harqErrorRate_2nd_Dl:mean -nan
scalar SingleCell_withSecondaryGnb.secondaryGnb.cellularNic.mac harqErrorRate_1st_Ul:mean -nan
scalar SingleCell_withSecondaryGnb.secondaryGnb.cellularNic.mac harqErrorRate_1st_Dl:mean -nan
scalar SingleCell_withSecondaryGnb.secondaryGnb.cellularNic.mac harqErrorRateUl:mean -nan
scalar SingleCell_withSecondaryGnb.secondaryGnb.cellularNic.mac harqErrorRateDl:mean -nan
scalar SingleCell_withSecondaryGnb.secondaryGnb.cellularNic.mac macCellPacketLossUl:mean -nan
scalar SingleCell_withSecondaryGnb.secondaryGnb.cellularNic.mac macCellPacketLossDl:mean 0
scalar SingleCell_withSecondaryGnb.secondaryGnb.cellularNic.mac macPacketLossUl:mean -nan
scalar SingleCell_withSecondaryGnb.secondaryGnb.cellularNic.mac macPacketLossDl:mean -nan
scalar SingleCell_withSecondaryGnb.secondaryGnb.cellularNic.mac macThroughputUl:simu5g_rateavg -nan
scalar SingleCell_withSecondaryGnb.secondaryGnb.cellularNic.mac macThroughputDl:simu5g_rateavg -nan
scalar SingleCell_withSecondaryGnb.secondaryGnb.cellularNic.mac macDelayUl:mean -nan
scalar SingleCell_withSecondaryGnb.secondaryGnb.cellularNic.mac macDelayDl:mean -nan
scalar SingleCell_withSecondaryGnb.secondaryGnb.cellularNic.mac macCellThroughputUl:simu5g_rateavg -nan
scalar SingleCell_withSecondaryGnb.secondaryGnb.cellularNic.mac macCellThroughputDl:simu5g_rateavg 72382.23772156972
scalar SingleCell_withSecondaryGnb.secondaryGnb.cellularNic.mac sentPacketToLowerLayer:count 5053
scalar SingleCell_withSecondaryGnb.secondaryGnb.cellularNic.mac sentPacketToLowerLayer:sum(packetBytes) 368869
scalar SingleCell_withSecondaryGnb.secondaryGnb.cellularNic.mac sentPacketToUpperLayer:count 5000
scalar SingleCell_withSecondaryGnb.secondaryGnb.cellularNic.mac sentPacketToUpperLayer:sum(packetBytes) 5000
scalar SingleCell_withSecondaryGnb.secondaryGnb.cellularNic.mac receivedPacketFromLowerLayer:count 13391
scalar SingleCell_withSecondaryGnb.secondaryGnb.cellularNic.mac receivedPacketFromLowerLayer:sum(packetBytes) 13391
scalar SingleCell_withSecondaryGnb.secondaryGnb.cellularNic.mac receivedPacketFromUpperLayer:count 10000
scalar SingleCell_withSecondaryGnb.secondaryGnb.cellularNic.mac receivedPacketFromUpperLayer:sum(packetBytes) 700000
scalar SingleCell_withSecondaryGnb.secondaryGnb.cellularNic.mac macBufferOverFlowD2D:mean -nan
scalar SingleCell_withSecondaryGnb.secondaryGnb.cellularNic.mac macBufferOverFlowUl:mean -nan
scalar SingleCell_withSecondaryGnb.secondaryGnb.cellularNic.mac macBufferOverFlowDl:mean -nan
scalar SingleCell_withSecondaryGnb.secondaryGnb.cellularNic.channelModel[0] measuredSinrUl:mean -nan
scalar SingleCell_withSecondaryGnb.secondaryGnb.cellularNic.channelModel[0] measuredSinrDl:mean -nan
scalar SingleCell_withSecondaryGnb.secondaryGnb.cellularNic.channelModel[0] rcvdSinrD2D:mean -nan
scalar SingleCell_withSecondaryGnb.secondaryGnb.cellularNic.channelModel[0] rcvdSinrUl:mean -nan
scalar SingleCell_withSecondaryGnb.secondaryGnb.cellularNic.channelModel[0] rcvdSinrDl:mean -nan
scalar SingleCell_withSecondaryGnb.secondaryGnb.cellularNic packetDropInterfaceDown:count 0
scalar SingleCell_withSecondaryGnb.secondaryGnb.cellularNic packetDropInterfaceDown:sum(packetBytes) 0
scalar SingleCell_withSecondaryGnb.secondaryGnb.cellularNic packetDropNoCarrier:count 0
scalar SingleCell_withSecondaryGnb.secondaryGnb.cellularNic packetDropNoCarrier:sum(packetBytes) 0
scalar SingleCell_withSecondaryGnb.secondaryGnb.pppIf.queue queueLength:last 0
scalar SingleCell_withSecondaryGnb.secondaryGnb.pppIf.queue queueLength:max 0
scalar SingleCell_withSecondaryGnb.secondaryGnb.pppIf.queue queueLength:timeavg 0
scalar SingleCell_withSecondaryGnb.secondaryGnb.pppIf.queue queueBitLength:last 0
scalar SingleCell_withSecondaryGnb.secondaryGnb.pppIf.queue queueBitLength:max 0
scalar SingleCell_withSecondaryGnb.secondaryGnb.pppIf.queue queueBitLength:timeavg 0
scalar SingleCell_withSecondaryGnb.secondaryGnb.pppIf.queue outgoingPackets:count 0
scalar SingleCell_withSecondaryGnb.secondaryGnb.pppIf.queue outgoingPacketLengths:sum 0
scalar SingleCell_withSecondaryGnb.secondaryGnb.pppIf.queue incomingPackets:count 0
scalar SingleCell_withSecondaryGnb.secondaryGnb.pppIf.queue incomingPacketLengths:sum 0
scalar SingleCell_withSecondaryGnb.secondaryGnb.pppIf.queue droppedPacketsQueueOverflow:count 0
scalar SingleCell_withSecondaryGnb.secondaryGnb.pppIf.queue droppedPacketLengthsQueueOverflow:sum 0
scalar SingleCell_withSecondaryGnb.secondaryGnb.pppIf.ppp transmissionState:timeavg 0
scalar SingleCell_withSecondaryGnb.secondaryGnb.pppIf.ppp rxPkOk:count 0
scalar SingleCell_withSecondaryGnb.secondaryGnb.pppIf.ppp rxPkOk:sum(packetBytes) 0
scalar SingleCell_withSecondaryGnb.secondaryGnb.pppIf.ppp txPk:count 0
scalar SingleCell_withSecondaryGnb.secondaryGnb.pppIf.ppp txPk:sum(packetBytes) 0
scalar SingleCell_withSecondaryGnb.secondaryGnb.pppIf.ppp rcvdPkFromHl:count 0
scalar SingleCell_withSecondaryGnb.secondaryGnb.pppIf.ppp rcvdPkFromHl:sum(packetBytes) 0
scalar SingleCell_withSecondaryGnb.secondaryGnb.pppIf.ppp passedUpPk:count 0
scalar SingleCell_withSecondaryGnb.secondaryGnb.pppIf.ppp passedUpPk:sum(packetBytes) 0
scalar SingleCell_withSecondaryGnb.secondaryGnb.pppIf.ppp packetDropIncorrectlyReceived:count 0
scalar SingleCell_withSecondaryGnb.secondaryGnb.pppIf.ppp packetDropIncorrectlyReceived:sum(packetBytes) 0
scalar SingleCell_withSecondaryGnb.secondaryGnb.pppIf.ppp packetDropInterfaceDown:count 0
scalar SingleCell_withSecondaryGnb.secondaryGnb.pppIf.ppp packetDropInterfaceDown:sum(packetBytes) 0
scalar SingleCell_withSecondaryGnb.secondaryGnb.pppIf packetDropInterfaceDown:count 0
scalar SingleCell_withSecondaryGnb.secondaryGnb.pppIf packetDropInterfaceDown:sum(packetBytes) 0
scalar SingleCell_withSecondaryGnb.secondaryGnb.pppIf packetDropNoCarrier:count 0
scalar SingleCell_withSecondaryGnb.secondaryGnb.pppIf packetDropNoCarrier:sum(packetBytes) 0
scalar SingleCell_withSecondaryGnb.secondaryGnb.x2ppp[0].queue queueLength:last 0
scalar SingleCell_withSecondaryGnb.secondaryGnb.x2ppp[0].queue queueLength:max 0
scalar SingleCell_withSecondaryGnb.secondaryGnb.x2ppp[0].queue queueLength:timeavg 0
scalar SingleCell_withSecondaryGnb.secondaryGnb.x2ppp[0].queue queueBitLength:last 0
scalar SingleCell_withSecondaryGnb.secondaryGnb.x2ppp[0].queue queueBitLength:max 0
scalar SingleCell_withSecondaryGnb.secondaryGnb.x2ppp[0].queue queueBitLength:timeavg 0
scalar SingleCell_withSecondaryGnb.secondaryGnb.x2ppp[0].queue outgoingPackets:count 4
scalar SingleCell_withSecondaryGnb.secondaryGnb.x2ppp[0].queue outgoingPacketLengths:sum 3328
scalar SingleCell_withSecondaryGnb.secondaryGnb.x2ppp[0].queue incomingPackets:count 4
scalar SingleCell_withSecondaryGnb.secondaryGnb.x2ppp[0].queue incomingPacketLengths:sum 3328
scalar SingleCell_withSecondaryGnb.secondaryGnb.x2ppp[0].queue droppedPacketsQueueOverflow:count 0
scalar SingleCell_withSecondaryGnb.secondaryGnb.x2ppp[0].queue droppedPacketLengthsQueueOverflow:sum 0
scalar SingleCell_withSecondaryGnb.secondaryGnb.x2ppp[0].ppp transmissionState:timeavg 3.5519999999999996e-08
scalar SingleCell_withSecondaryGnb.secondaryGnb.x2ppp[0].ppp rxPkOk:count 5004
scalar SingleCell_withSecondaryGnb.secondaryGnb.x2ppp[0].ppp rxPkOk:sum(packetBytes) 580444
scalar SingleCell_withSecondaryGnb.secondaryGnb.x2ppp[0].ppp txPk:count 4
scalar SingleCell_withSecondaryGnb.secondaryGnb.x2ppp[0].ppp txPk:sum(packetBytes) 444
scalar SingleCell_withSecondaryGnb.secondaryGnb.x2ppp[0].ppp rcvdPkFromHl:count 4
scalar SingleCell_withSecondaryGnb.secondaryGnb.x2ppp[0].ppp rcvdPkFromHl:sum(packetBytes) 416
scalar SingleCell_withSecondaryGnb.secondaryGnb.x2ppp[0].ppp passedUpPk:count 5004
scalar SingleCell_withSecondaryGnb.secondaryGnb.x2ppp[0].ppp passedUpPk:sum(packetBytes) 545416
scalar SingleCell_withSecondaryGnb.secondaryGnb.x2ppp[0].ppp packetDropIncorrectlyReceived:count 0
scalar SingleCell_withSecondaryGnb.secondaryGnb.x2ppp[0].ppp packetDropIncorrectlyReceived:sum(packetBytes) 0
scalar SingleCell_withSecondaryGnb.secondaryGnb.x2ppp[0].ppp packetDropInterfaceDown:count 0
scalar SingleCell_withSecondaryGnb.secondaryGnb.x2ppp[0].ppp packetDropInterfaceDown:sum(packetBytes) 0
scalar SingleCell_withSecondaryGnb.secondaryGnb.x2ppp[0] packetDropInterfaceDown:count 0
scalar SingleCell_withSecondaryGnb.secondaryGnb.x2ppp[0] packetDropInterfaceDown:sum(packetBytes) 0
scalar SingleCell_withSecondaryGnb.secondaryGnb.x2ppp[0] packetDropNoCarrier:count 0
scalar SingleCell_withSecondaryGnb.secondaryGnb.x2ppp[0] packetDropNoCarrier:sum(packetBytes) 0
scalar SingleCell_withSecondaryGnb.secondaryGnb.pppMEHostIf.queue queueLength:last 0
scalar SingleCell_withSecondaryGnb.secondaryGnb.pppMEHostIf.queue queueLength:max 0
scalar SingleCell_withSecondaryGnb.secondaryGnb.pppMEHostIf.queue queueLength:timeavg 0
scalar SingleCell_withSecondaryGnb.secondaryGnb.pppMEHostIf.queue queueBitLength:last 0
scalar SingleCell_withSecondaryGnb.secondaryGnb.pppMEHostIf.queue queueBitLength:max 0
scalar SingleCell_withSecondaryGnb.secondaryGnb.pppMEHostIf.queue queueBitLength:timeavg 0
scalar SingleCell_withSecondaryGnb.secondaryGnb.pppMEHostIf.queue outgoingPackets:count 0
scalar SingleCell_withSecondaryGnb.secondaryGnb.pppMEHostIf.queue outgoingPacketLengths:sum 0
scalar SingleCell_withSecondaryGnb.secondaryGnb.pppMEHostIf.queue incomingPackets:count 0
scalar SingleCell_withSecondaryGnb.secondaryGnb.pppMEHostIf.queue incomingPacketLengths:sum 0
scalar SingleCell_withSecondaryGnb.secondaryGnb.pppMEHostIf.queue droppedPacketsQueueOverflow:count 0
scalar SingleCell_withSecondaryGnb.secondaryGnb.pppMEHostIf.queue droppedPacketLengthsQueueOverflow:sum 0
scalar SingleCell_withSecondaryGnb.secondaryGnb.pppMEHostIf.ppp transmissionState:timeavg 0
scalar SingleCell_withSecondaryGnb.secondaryGnb.pppMEHostIf.ppp rxPkOk:count 0
scalar SingleCell_withSecondaryGnb.secondaryGnb.pppMEHostIf.ppp rxPkOk:sum(packetBytes) 0
scalar SingleCell_withSecondaryGnb.secondaryGnb.pppMEHostIf.ppp txPk:count 0
scalar SingleCell_withSecondaryGnb.secondaryGnb.pppMEHostIf.ppp txPk:sum(packetBytes) 0
scalar SingleCell_withSecondaryGnb.secondaryGnb.pppMEHostIf.ppp rcvdPkFromHl:count 0
scalar SingleCell_withSecondaryGnb.secondaryGnb.pppMEHostIf.ppp rcvdPkFromHl:sum(packetBytes) 0
scalar SingleCell_withSecondaryGnb.secondaryGnb.pppMEHostIf.ppp passedUpPk:count 0
scalar SingleCell_withSecondaryGnb.secondaryGnb.pppMEHostIf.ppp passedUpPk:sum(packetBytes) 0
scalar SingleCell_withSecondaryGnb.secondaryGnb.pppMEHostIf.ppp packetDropIncorrectlyReceived:count 0
scalar SingleCell_withSecondaryGnb.secondaryGnb.pppMEHostIf.ppp packetDropIncorrectlyReceived:sum(packetBytes) 0
scalar SingleCell_withSecondaryGnb.secondaryGnb.pppMEHostIf.ppp packetDropInterfaceDown:count 0
scalar SingleCell_withSecondaryGnb.secondaryGnb.pppMEHostIf.ppp packetDropInterfaceDown:sum(packetBytes) 0
scalar SingleCell_withSecondaryGnb.secondaryGnb.pppMEHostIf packetDropInterfaceDown:count 0
scalar SingleCell_withSecondaryGnb.secondaryGnb.pppMEHostIf packetDropInterfaceDown:sum(packetBytes) 0
scalar SingleCell_withSecondaryGnb.secondaryGnb.pppMEHostIf packetDropNoCarrier:count 0
scalar SingleCell_withSecondaryGnb.secondaryGnb.pppMEHostIf packetDropNoCarrier:sum(packetBytes) 0
scalar SingleCell_withSecondaryGnb.secondaryGnb.ipv4.ip packetDropAddressResolutionFailed:count 0
scalar SingleCell_withSecondaryGnb.secondaryGnb.ipv4.ip packetDropAddressResolutionFailed:sum(packetBytes) 0
scalar SingleCell_withSecondaryGnb.secondaryGnb.ipv4.ip packetDropHopLimitReached:count 0
scalar SingleCell_withSecondaryGnb.secondaryGnb.ipv4.ip packetDropHopLimitReached:sum(packetBytes) 0
scalar SingleCell_withSecondaryGnb.secondaryGnb.ipv4.ip packetDropForwardingDisabled:count 0
scalar SingleCell_withSecondaryGnb.secondaryGnb.ipv4.ip packetDropForwardingDisabled:sum(packetBytes) 0
scalar SingleCell_withSecondaryGnb.secondaryGnb.ipv4.ip packetDropNoInterfaceFound:count 0
scalar SingleCell_withSecondaryGnb.secondaryGnb.ipv4.ip packetDropNoInterfaceFound:sum(packetBytes) 0
scalar SingleCell_withSecondaryGnb.secondaryGnb.ipv4.ip packetDropNoRouteFound:count 0
scalar SingleCell_withSecondaryGnb.secondaryGnb.ipv4.ip packetDropNoRouteFound:sum(packetBytes) 0
scalar SingleCell_withSecondaryGnb.secondaryGnb.ipv4.ip packetDropUndefined:count 0
scalar SingleCell_withSecondaryGnb.secondaryGnb.ipv4.ip packetDropUndefined:sum(packetBytes) 0
scalar SingleCell_withSecondaryGnb.secondaryGnb.ipv4.arp arpResolutionFailed:count 0
scalar SingleCell_withSecondaryGnb.secondaryGnb.ipv4.arp arpResolutionCompleted:count 0
scalar SingleCell_withSecondaryGnb.secondaryGnb.ipv4.arp arpResolutionInitiated:count 0
scalar SingleCell_withSecondaryGnb.secondaryGnb.ipv4.arp arpReplySent:count 0
scalar SingleCell_withSecondaryGnb.secondaryGnb.ipv4.arp arpReplySent:sum(packetBytes) 0
scalar SingleCell_withSecondaryGnb.secondaryGnb.ipv4.arp arpRequestSent:count 0
scalar SingleCell_withSecondaryGnb.secondaryGnb.ipv4.arp arpRequestSent:sum(packetBytes) 0
scalar SingleCell_withSecondaryGnb.secondaryGnb.udp packetReceived:count 5000
scalar SingleCell_withSecondaryGnb.secondaryGnb.udp packetReceived:sum(packetBytes) 445000
scalar SingleCell_withSecondaryGnb.secondaryGnb.udp packetSent:count 0
scalar SingleCell_withSecondaryGnb.secondaryGnb.udp packetSent:sum(packetBytes) 0
scalar SingleCell_withSecondaryGnb.secondaryGnb.udp passedUpPk:count 5000
scalar SingleCell_withSecondaryGnb.secondaryGnb.udp droppedPkWrongPort:count 0
scalar SingleCell_withSecondaryGnb.secondaryGnb.udp droppedPkBadChecksum:count 0
scalar SingleCell_withSecondaryGnb.secondaryGnb.x2App[0].client packetReceived:count 0
scalar SingleCell_withSecondaryGnb.secondaryGnb.x2App[0].client packetReceived:sum(packetBytes) 0
scalar SingleCell_withSecondaryGnb.secondaryGnb.x2App[0].client packetSent:count 0
scalar SingleCell_withSecondaryGnb.secondaryGnb.x2App[0].client packetSent:sum(packetBytes) 0
scalar SingleCell_withSecondaryGnb.secondaryGnb.x2App[0].client echoedPk:count 0
scalar SingleCell_withSecondaryGnb.secondaryGnb.x2App[0].client echoedPk:sum(packetBytes) 0
scalar SingleCell_withSecondaryGnb.secondaryGnb.x2App[0].server "bytes rcvd" 0
scalar SingleCell_withSecondaryGnb.secondaryGnb.x2App[0].server throughput -nan
scalar SingleCell_withSecondaryGnb.ue[0].lo[0].lo rcvdPkFromHl:count 0
scalar SingleCell_withSecondaryGnb.ue[0].lo[0].lo rcvdPkFromHl:sum(packetBytes) 0
scalar SingleCell_withSecondaryGnb.ue[0].lo[0].lo passedUpPk:count 0
scalar SingleCell_withSecondaryGnb.ue[0].lo[0].lo passedUpPk:sum(packetBytes) 0
scalar SingleCell_withSecondaryGnb.ue[0].lo[0] packetDropInterfaceDown:count 0
scalar SingleCell_withSecondaryGnb.ue[0].lo[0] packetDropInterfaceDown:sum(packetBytes) 0
scalar SingleCell_withSecondaryGnb.ue[0].lo[0] packetDropNoCarrier:count 0
scalar SingleCell_withSecondaryGnb.ue[0].lo[0] packetDropNoCarrier:sum(packetBytes) 0
scalar SingleCell_withSecondaryGnb.ue[0].cellularNic.pdcp sentPacketToLowerLayer:count 0
scalar SingleCell_withSecondaryGnb.ue[0].cellularNic.pdcp sentPacketToLowerLayer:sum(packetBytes) 0
scalar SingleCell_withSecondaryGnb.ue[0].cellularNic.pdcp sentPacketToUpperLayer:count 999
scalar SingleCell_withSecondaryGnb.ue[0].cellularNic.pdcp sentPacketToUpperLayer:sum(packetBytes) 67932
scalar SingleCell_withSecondaryGnb.ue[0].cellularNic.pdcp receivedPacketFromLowerLayer:count 999
scalar SingleCell_withSecondaryGnb.ue[0].cellularNic.pdcp receivedPacketFromLowerLayer:sum(packetBytes) 68931
scalar SingleCell_withSecondaryGnb.ue[0].cellularNic.pdcp receivedPacketFromUpperLayer:count 0
scalar SingleCell_withSecondaryGnb.ue[0].cellularNic.pdcp receivedPacketFromUpperLayer:sum(packetBytes) 0
scalar SingleCell_withSecondaryGnb.ue[0].cellularNic.rlc.tm rlcPacketLossUl:mean -nan
scalar SingleCell_withSecondaryGnb.ue[0].cellularNic.rlc.tm rlcPacketLossUl:sum 0
scalar SingleCell_withSecondaryGnb.ue[0].cellularNic.rlc.tm rlcPacketLossDl:mean -nan
scalar SingleCell_withSecondaryGnb.ue[0].cellularNic.rlc.tm rlcPacketLossDl:sum 0
scalar SingleCell_withSecondaryGnb.ue[0].cellularNic.rlc.tm sentPacketToLowerLayer:count 0
scalar SingleCell_withSecondaryGnb.ue[0].cellularNic.rlc.tm sentPacketToLowerLayer:sum(packetBytes) 0
scalar SingleCell_withSecondaryGnb.ue[0].cellularNic.rlc.tm sentPacketToUpperLayer:count 0
scalar SingleCell_withSecondaryGnb.ue[0].cellularNic.rlc.tm sentPacketToUpperLayer:sum(packetBytes) 0
scalar SingleCell_withSecondaryGnb.ue[0].cellularNic.rlc.tm receivedPacketFromLowerLayer:count 0
scalar SingleCell_withSecondaryGnb.ue[0].cellularNic.rlc.tm receivedPacketFromLowerLayer:sum(packetBytes) 0
scalar SingleCell_withSecondaryGnb.ue[0].cellularNic.rlc.tm receivedPacketFromUpperLayer:count 0
scalar SingleCell_withSecondaryGnb.ue[0].cellularNic.rlc.tm receivedPacketFromUpperLayer:sum(packetBytes) 0
scalar SingleCell_withSecondaryGnb.ue[0].cellularNic.rlc.um rlcCellThroughputD2D:simu5g_rateavg -nan
scalar SingleCell_withSecondaryGnb.ue[0].cellularNic.rlc.um rlcPduThroughputD2D:simu5g_rateavg -nan
scalar SingleCell_withSecondaryGnb.ue[0].cellularNic.rlc.um rlcPduDelayD2D:mean -nan
scalar SingleCell_withSecondaryGnb.ue[0].cellularNic.rlc.um rlcThroughputD2D:simu5g_rateavg -nan
scalar SingleCell_withSecondaryGnb.ue[0].cellularNic.rlc.um rlcDelayD2D:mean -nan
scalar SingleCell_withSecondaryGnb.ue[0].cellularNic.rlc.um rlcCellThroughputUl:simu5g_rateavg -nan
scalar SingleCell_withSecondaryGnb.ue[0].cellularNic.rlc.um rlcCellThroughputDl:simu5g_rateavg -nan
scalar SingleCell_withSecondaryGnb.ue[0].cellularNic.rlc.um rlcPduThroughputUl:simu5g_rateavg -nan
scalar SingleCell_withSecondaryGnb.ue[0].cellularNic.rlc.um rlcPduThroughputDl:simu5g_rateavg 0
scalar SingleCell_withSecondaryGnb.ue[0].cellularNic.rlc.um rlcPduDelayUl:mean -nan
scalar SingleCell_withSecondaryGnb.ue[0].cellularNic.rlc.um rlcPduDelayDl:mean 0.0040000000000000027
scalar SingleCell_withSecondaryGnb.ue[0].cellularNic.rlc.um rlcThroughputUl:simu5g_rateavg -nan
scalar SingleCell_withSecondaryGnb.ue[0].cellularNic.rlc.um rlcThroughputDl:simu5g_rateavg 3443.0550707075827
scalar SingleCell_withSecondaryGnb.ue[0].cellularNic.rlc.um rlcDelayUl:mean -nan
scalar SingleCell_withSecondaryGnb.ue[0].cellularNic.rlc.um rlcDelayDl:mean 0.004884456457999964
scalar SingleCell_withSecondaryGnb.ue[0].cellularNic.rlc.um sentPacketToLowerLayer:count 0
scalar SingleCell_withSecondaryGnb.ue[0].cellularNic.rlc.um sentPacketToLowerLayer:sum(packetBytes) 0
scalar SingleCell_withSecondaryGnb.ue[0].cellularNic.rlc.um sentPacketToUpperLayer:count 499
scalar SingleCell_withSecondaryGnb.ue[0].cellularNic.rlc.um sentPacketToUpperLayer:sum(packetBytes) 34431
scalar SingleCell_withSecondaryGnb.ue[0].cellularNic.rlc.um receivedPacketFromLowerLayer:count 499
scalar SingleCell_withSecondaryGnb.ue[0].cellularNic.rlc.um receivedPacketFromLowerLayer:sum(packetBytes) 35429
scalar SingleCell_withSecondaryGnb.ue[0].cellularNic.rlc.um receivedPacketFromUpperLayer:count 0
scalar SingleCell_withSecondaryGnb.ue[0].cellularNic.rlc.um receivedPacketFromUpperLayer:sum(packetBytes) 0
scalar SingleCell_withSecondaryGnb.ue[0].cellularNic.rlc.am rlcPacketLossTotal:mean -nan
scalar SingleCell_withSecondaryGnb.ue[0].cellularNic.rlc.am rlcCellThroughputUl:simu5g_rateavg -nan
scalar SingleCell_withSecondaryGnb.ue[0].cellularNic.rlc.am rlcCellThroughputDl:simu5g_rateavg -nan
scalar SingleCell_withSecondaryGnb.ue[0].cellularNic.rlc.am rlcPduThroughputUl:simu5g_rateavg -nan
scalar SingleCell_withSecondaryGnb.ue[0].cellularNic.rlc.am rlcPduThroughputDl:simu5g_rateavg -nan
scalar SingleCell_withSecondaryGnb.ue[0].cellularNic.rlc.am rlcPduDelayUl:mean -nan
scalar SingleCell_withSecondaryGnb.ue[0].cellularNic.rlc.am rlcPduDelayDl:mean -nan
scalar SingleCell_withSecondaryGnb.ue[0].cellularNic.rlc.am rlcThroughputUl:simu5g_rateavg -nan
scalar SingleCell_withSecondaryGnb.ue[0].cellularNic.rlc.am rlcThroughputDl:simu5g_rateavg -nan
scalar SingleCell_withSecondaryGnb.ue[0].cellularNic.rlc.am rlcDelayUl:mean -nan
scalar SingleCell_withSecondaryGnb.ue[0].cellularNic.rlc.am rlcDelayDl:mean -nan
scalar SingleCell_withSecondaryGnb.ue[0].cellularNic.rlc.am rlcPduPacketLossUl:mean -nan
scalar SingleCell_withSecondaryGnb.ue[0].cellularNic.rlc.am rlcPduPacketLossDl:mean -nan
scalar SingleCell_withSecondaryGnb.ue[0].cellularNic.rlc.am rlcPacketLossUl:mean -nan
scalar SingleCell_withSecondaryGnb.ue[0].cellularNic.rlc.am rlcPacketLossDl:mean -nan
scalar SingleCell_withSecondaryGnb.ue[0].cellularNic.rlc.am rlcCellPacketLossUl:mean -nan
scalar SingleCell_withSecondaryGnb.ue[0].cellularNic.rlc.am rlcCellPacketLossDl:mean -nan
scalar SingleCell_withSecondaryGnb.ue[0].cellularNic.mac harqErrorRate_4th_D2D:mean -nan
scalar SingleCell_withSecondaryGnb.ue[0].cellularNic.mac harqErrorRate_3rd_D2D:mean -nan
scalar SingleCell_withSecondaryGnb.ue[0].cellularNic.mac harqErrorRate_2nd_D2D:mean -nan
scalar SingleCell_withSecondaryGnb.ue[0].cellularNic.mac harqErrorRate_1st_D2D:mean -nan
scalar SingleCell_withSecondaryGnb.ue[0].cellularNic.mac harqErrorRateD2D:mean -nan
scalar SingleCell_withSecondaryGnb.ue[0].cellularNic.mac macPacketLossD2D:mean -nan
scalar SingleCell_withSecondaryGnb.ue[0].cellularNic.mac macDelayD2D:mean -nan
scalar SingleCell_withSecondaryGnb.ue[0].cellularNic.mac macThroughputD2D:simu5g_rateavg -nan
scalar SingleCell_withSecondaryGnb.ue[0].cellularNic.mac harqTxAttemptsUl:mean -nan
scalar SingleCell_withSecondaryGnb.ue[0].cellularNic.mac harqTxAttemptsDl:mean 1
scalar SingleCell_withSecondaryGnb.ue[0].cellularNic.mac harqErrorRate_4th_Ul:mean -nan
scalar SingleCell_withSecondaryGnb.ue[0].cellularNic.mac harqErrorRate_4th_Dl:mean -nan
scalar SingleCell_withSecondaryGnb.ue[0].cellularNic.mac harqErrorRate_3rd_Ul:mean -nan
scalar SingleCell_withSecondaryGnb.ue[0].cellularNic.mac harqErrorRate_3rd_Dl:mean -nan
scalar SingleCell_withSecondaryGnb.ue[0].cellularNic.mac harqErrorRate_2nd_Ul:mean -nan
scalar SingleCell_withSecondaryGnb.ue[0].cellularNic.mac harqErrorRate_2nd_Dl:mean -nan
[...]
scalar SingleCell_withSecondaryGnb.masterEnb.sctp "RTO 24:10.0.2.2:min" inf
scalar SingleCell_withSecondaryGnb.masterEnb.sctp "RTO 24:10.0.2.2:max" -inf
scalar SingleCell_withSecondaryGnb.masterEnb.sctp "RTO 24:10.0.2.2:starttime" nan
scalar SingleCell_withSecondaryGnb.masterEnb.sctp "RTO 24:10.0.2.2:endtime" nan
scalar SingleCell_withSecondaryGnb.masterEnb.sctp "Slow Start Threshold 24:192.168.4.1:count" 0
scalar SingleCell_withSecondaryGnb.masterEnb.sctp "Slow Start Threshold 24:192.168.4.1:sum" 0
scalar SingleCell_withSecondaryGnb.masterEnb.sctp "Slow Start Threshold 24:192.168.4.1:sumweights" 0
scalar SingleCell_withSecondaryGnb.masterEnb.sctp "Slow Start Threshold 24:192.168.4.1:mean" -nan
scalar SingleCell_withSecondaryGnb.masterEnb.sctp "Slow Start Threshold 24:192.168.4.1:stddev" nan
scalar SingleCell_withSecondaryGnb.masterEnb.sctp "Slow Start Threshold 24:192.168.4.1:min" inf
scalar SingleCell_withSecondaryGnb.masterEnb.sctp "Slow Start Threshold 24:192.168.4.1:max" -inf
scalar SingleCell_withSecondaryGnb.masterEnb.sctp "Slow Start Threshold 24:192.168.4.1:starttime" nan
scalar SingleCell_withSecondaryGnb.masterEnb.sctp "Slow Start Threshold 24:192.168.4.1:endtime" nan
scalar SingleCell_withSecondaryGnb.masterEnb.sctp "Congestion Window 24:192.168.4.1:count" 0
scalar SingleCell_withSecondaryGnb.masterEnb.sctp "Congestion Window 24:192.168.4.1:sum" 0
scalar SingleCell_withSecondaryGnb.masterEnb.sctp "Congestion Window 24:192.168.4.1:sumweights" 0
scalar SingleCell_withSecondaryGnb.masterEnb.sctp "Congestion Window 24:192.168.4.1:mean" -nan
scalar SingleCell_withSecondaryGnb.masterEnb.sctp "Congestion Window 24:192.168.4.1:stddev" nan
scalar SingleCell_withSecondaryGnb.masterEnb.sctp "Congestion Window 24:192.168.4.1:min" inf
scalar SingleCell_withSecondaryGnb.masterEnb.sctp "Congestion Window 24:192.168.4.1:max" -inf
scalar SingleCell_withSecondaryGnb.masterEnb.sctp "Congestion Window 24:192.168.4.1:starttime" nan
scalar SingleCell_withSecondaryGnb.masterEnb.sctp "Congestion Window 24:192.168.4.1:endtime" nan
scalar SingleCell_withSecondaryGnb.masterEnb.sctp "Bandwidth 24:192.168.4.1:count" 0
scalar SingleCell_withSecondaryGnb.masterEnb.sctp "Bandwidth 24:192.168.4.1:sum" 0
scalar SingleCell_withSecondaryGnb.masterEnb.sctp "Bandwidth 24:192.168.4.1:sumweights" 0
scalar SingleCell_withSecondaryGnb.masterEnb.sctp "Bandwidth 24:192.168.4.1:mean" -nan
scalar SingleCell_withSecondaryGnb.masterEnb.sctp "Bandwidth 24:192.168.4.1:stddev" nan
scalar SingleCell_withSecondaryGnb.masterEnb.sctp "Bandwidth 24:192.168.4.1:min" inf
scalar SingleCell_withSecondaryGnb.masterEnb.sctp "Bandwidth 24:192.168.4.1:max" -inf
scalar SingleCell_withSecondaryGnb.masterEnb.sctp "Bandwidth 24:192.168.4.1:starttime" nan
scalar SingleCell_withSecondaryGnb.masterEnb.sctp "Bandwidth 24:192.168.4.1:endtime" nan
scalar SingleCell_withSecondaryGnb.masterEnb.sctp "RTO 24:192.168.4.1:count" 0
scalar SingleCell_withSecondaryGnb.masterEnb.sctp "RTO 24:192.168.4.1:sum" 0
scalar SingleCell_withSecondaryGnb.masterEnb.sctp "RTO 24:192.168.4.1:sumweights" 0
scalar SingleCell_withSecondaryGnb.masterEnb.sctp "RTO 24:192.168.4.1:mean" -nan
scalar SingleCell_withSecondaryGnb.masterEnb.sctp "RTO 24:192.168.4.1:stddev" nan
scalar SingleCell_withSecondaryGnb.masterEnb.sctp "RTO 24:192.168.4.1:min" inf
scalar SingleCell_withSecondaryGnb.masterEnb.sctp "RTO 24:192.168.4.1:max" -inf
scalar SingleCell_withSecondaryGnb.masterEnb.sctp "RTO 24:192.168.4.1:starttime" nan
scalar SingleCell_withSecondaryGnb.masterEnb.sctp "RTO 24:192.168.4.1:endtime" nan
scalar SingleCell_withSecondaryGnb.masterEnb.sctp "Slow Start Threshold 24:192.168.5.1:count" 0
scalar SingleCell_withSecondaryGnb.masterEnb.sctp "Slow Start Threshold 24:192.168.5.1:sum" 0
scalar SingleCell_withSecondaryGnb.masterEnb.sctp "Slow Start Threshold 24:192.168.5.1:sumweights" 0
scalar SingleCell_withSecondaryGnb.masterEnb.sctp "Slow Start Threshold 24:192.168.5.1:mean" -nan
scalar SingleCell_withSecondaryGnb.masterEnb.sctp "Slow Start Threshold 24:192.168.5.1:stddev" nan
scalar SingleCell_withSecondaryGnb.masterEnb.sctp "Slow Start Threshold 24:192.168.5.1:min" inf
scalar SingleCell_withSecondaryGnb.masterEnb.sctp "Slow Start Threshold 24:192.168.5.1:max" -inf
scalar SingleCell_withSecondaryGnb.masterEnb.sctp "Slow Start Threshold 24:192.168.5.1:starttime" nan
scalar SingleCell_withSecondaryGnb.masterEnb.sctp "Slow Start Threshold 24:192.168.5.1:endtime" nan
scalar SingleCell_withSecondaryGnb.masterEnb.sctp "Congestion Window 24:192.168.5.1:count" 0
scalar SingleCell_withSecondaryGnb.masterEnb.sctp "Congestion Window 24:192.168.5.1:sum" 0
scalar SingleCell_withSecondaryGnb.masterEnb.sctp "Congestion Window 24:192.168.5.1:sumweights" 0
scalar SingleCell_withSecondaryGnb.masterEnb.sctp "Congestion Window 24:192.168.5.1:mean" -nan
scalar SingleCell_withSecondaryGnb.masterEnb.sctp "Congestion Window 24:192.168.5.1:stddev" nan
scalar SingleCell_withSecondaryGnb.masterEnb.sctp "Congestion Window 24:192.168.5.1:min" inf
scalar SingleCell_withSecondaryGnb.masterEnb.sctp "Congestion Window 24:192.168.5.1:max" -inf
scalar SingleCell_withSecondaryGnb.masterEnb.sctp "Congestion Window 24:192.168.5.1:starttime" nan
scalar SingleCell_withSecondaryGnb.masterEnb.sctp "Congestion Window 24:192.168.5.1:endtime" nan
scalar SingleCell_withSecondaryGnb.masterEnb.sctp "Bandwidth 24:192.168.5.1:count" 0
scalar SingleCell_withSecondaryGnb.masterEnb.sctp "Bandwidth 24:192.168.5.1:sum" 0
scalar SingleCell_withSecondaryGnb.masterEnb.sctp "Bandwidth 24:192.168.5.1:sumweights" 0
scalar SingleCell_withSecondaryGnb.masterEnb.sctp "Bandwidth 24:192.168.5.1:mean" -nan
scalar SingleCell_withSecondaryGnb.masterEnb.sctp "Bandwidth 24:192.168.5.1:stddev" nan
scalar SingleCell_withSecondaryGnb.masterEnb.sctp "Bandwidth 24:192.168.5.1:min" inf
scalar SingleCell_withSecondaryGnb.masterEnb.sctp "Bandwidth 24:192.168.5.1:max" -inf
scalar SingleCell_withSecondaryGnb.masterEnb.sctp "Bandwidth 24:192.168.5.1:starttime" nan
scalar SingleCell_withSecondaryGnb.masterEnb.sctp "Bandwidth 24:192.168.5.1:endtime" nan
scalar SingleCell_withSecondaryGnb.masterEnb.sctp "RTO 24:192.168.5.1:count" 0
scalar SingleCell_withSecondaryGnb.masterEnb.sctp "RTO 24:192.168.5.1:sum" 0
scalar SingleCell_withSecondaryGnb.masterEnb.sctp "RTO 24:192.168.5.1:sumweights" 0
scalar SingleCell_withSecondaryGnb.masterEnb.sctp "RTO 24:192.168.5.1:mean" -nan
scalar SingleCell_withSecondaryGnb.masterEnb.sctp "RTO 24:192.168.5.1:stddev" nan
scalar SingleCell_withSecondaryGnb.masterEnb.sctp "RTO 24:192.168.5.1:min" inf
scalar SingleCell_withSecondaryGnb.masterEnb.sctp "RTO 24:192.168.5.1:max" -inf
scalar SingleCell_withSecondaryGnb.masterEnb.sctp "RTO 24:192.168.5.1:starttime" nan
scalar SingleCell_withSecondaryGnb.masterEnb.sctp "RTO 24:192.168.5.1:endtime" nan
scalar SingleCell_withSecondaryGnb.secondaryGnb.sctp "Slow Start Threshold 28:10.0.0.2:count" 0
scalar SingleCell_withSecondaryGnb.secondaryGnb.sctp "Slow Start Threshold 28:10.0.0.2:sum" 0
scalar SingleCell_withSecondaryGnb.secondaryGnb.sctp "Slow Start Threshold 28:10.0.0.2:sumweights" 0
scalar SingleCell_withSecondaryGnb.secondaryGnb.sctp "Slow Start Threshold 28:10.0.0.2:mean" -nan
scalar SingleCell_withSecondaryGnb.secondaryGnb.sctp "Slow Start Threshold 28:10.0.0.2:stddev" nan
scalar SingleCell_withSecondaryGnb.secondaryGnb.sctp "Slow Start Threshold 28:10.0.0.2:min" inf
scalar SingleCell_withSecondaryGnb.secondaryGnb.sctp "Slow Start Threshold 28:10.0.0.2:max" -inf
scalar SingleCell_withSecondaryGnb.secondaryGnb.sctp "Slow Start Threshold 28:10.0.0.2:starttime" nan
scalar SingleCell_withSecondaryGnb.secondaryGnb.sctp "Slow Start Threshold 28:10.0.0.2:endtime" nan
scalar SingleCell_withSecondaryGnb.secondaryGnb.sctp "Congestion Window 28:10.0.0.2:count" 0
scalar SingleCell_withSecondaryGnb.secondaryGnb.sctp "Congestion Window 28:10.0.0.2:sum" 0
scalar SingleCell_withSecondaryGnb.secondaryGnb.sctp "Congestion Window 28:10.0.0.2:sumweights" 0
scalar SingleCell_withSecondaryGnb.secondaryGnb.sctp "Congestion Window 28:10.0.0.2:mean" -nan
scalar SingleCell_withSecondaryGnb.secondaryGnb.sctp "Congestion Window 28:10.0.0.2:stddev" nan
scalar SingleCell_withSecondaryGnb.secondaryGnb.sctp "Congestion Window 28:10.0.0.2:min" inf
scalar SingleCell_withSecondaryGnb.secondaryGnb.sctp "Congestion Window 28:10.0.0.2:max" -inf
scalar SingleCell_withSecondaryGnb.secondaryGnb.sctp "Congestion Window 28:10.0.0.2:starttime" nan
scalar SingleCell_withSecondaryGnb.secondaryGnb.sctp "Congestion Window 28:10.0.0.2:endtime" nan
scalar SingleCell_withSecondaryGnb.secondaryGnb.sctp "Bandwidth 28:10.0.0.2:count" 0
scalar SingleCell_withSecondaryGnb.secondaryGnb.sctp "Bandwidth 28:10.0.0.2:sum" 0
scalar SingleCell_withSecondaryGnb.secondaryGnb.sctp "Bandwidth 28:10.0.0.2:sumweights" 0
scalar SingleCell_withSecondaryGnb.secondaryGnb.sctp "Bandwidth 28:10.0.0.2:mean" -nan
scalar SingleCell_withSecondaryGnb.secondaryGnb.sctp "Bandwidth 28:10.0.0.2:stddev" nan
scalar SingleCell_withSecondaryGnb.secondaryGnb.sctp "Bandwidth 28:10.0.0.2:min" inf
scalar SingleCell_withSecondaryGnb.secondaryGnb.sctp "Bandwidth 28:10.0.0.2:max" -inf
scalar SingleCell_withSecondaryGnb.secondaryGnb.sctp "Bandwidth 28:10.0.0.2:starttime" nan
scalar SingleCell_withSecondaryGnb.secondaryGnb.sctp "Bandwidth 28:10.0.0.2:endtime" nan
scalar SingleCell_withSecondaryGnb.secondaryGnb.sctp "RTO 28:10.0.0.2:count" 0
scalar SingleCell_withSecondaryGnb.secondaryGnb.sctp "RTO 28:10.0.0.2:sum" 0
scalar SingleCell_withSecondaryGnb.secondaryGnb.sctp "RTO 28:10.0.0.2:sumweights" 0
scalar SingleCell_withSecondaryGnb.secondaryGnb.sctp "RTO 28:10.0.0.2:mean" -nan
scalar SingleCell_withSecondaryGnb.secondaryGnb.sctp "RTO 28:10.0.0.2:stddev" nan
scalar SingleCell_withSecondaryGnb.secondaryGnb.sctp "RTO 28:10.0.0.2:min" inf
scalar SingleCell_withSecondaryGnb.secondaryGnb.sctp "RTO 28:10.0.0.2:max" -inf
scalar SingleCell_withSecondaryGnb.secondaryGnb.sctp "RTO 28:10.0.0.2:starttime" nan
scalar SingleCell_withSecondaryGnb.secondaryGnb.sctp "RTO 28:10.0.0.2:endtime" nan
scalar SingleCell_withSecondaryGnb.secondaryGnb.sctp "Slow Start Threshold 28:10.0.1.1:count" 0
scalar SingleCell_withSecondaryGnb.secondaryGnb.sctp "Slow Start Threshold 28:10.0.1.1:sum" 0
scalar SingleCell_withSecondaryGnb.secondaryGnb.sctp "Slow Start Threshold 28:10.0.1.1:sumweights" 0
scalar SingleCell_withSecondaryGnb.secondaryGnb.sctp "Slow Start Threshold 28:10.0.1.1:mean" -nan
scalar SingleCell_withSecondaryGnb.secondaryGnb.sctp "Slow Start Threshold 28:10.0.1.1:stddev" nan
scalar SingleCell_withSecondaryGnb.secondaryGnb.sctp "Slow Start Threshold 28:10.0.1.1:min" inf
scalar SingleCell_withSecondaryGnb.secondaryGnb.sctp "Slow Start Threshold 28:10.0.1.1:max" -inf
scalar SingleCell_withSecondaryGnb.secondaryGnb.sctp "Slow Start Threshold 28:10.0.1.1:starttime" nan
scalar SingleCell_withSecondaryGnb.secondaryGnb.sctp "Slow Start Threshold 28:10.0.1.1:endtime" nan
scalar SingleCell_withSecondaryGnb.secondaryGnb.sctp "Congestion Window 28:10.0.1.1:count" 0
scalar SingleCell_withSecondaryGnb.secondaryGnb.sctp "Congestion Window 28:10.0.1.1:sum" 0
scalar SingleCell_withSecondaryGnb.secondaryGnb.sctp "Congestion Window 28:10.0.1.1:sumweights" 0
scalar SingleCell_withSecondaryGnb.secondaryGnb.sctp "Congestion Window 28:10.0.1.1:mean" -nan
scalar SingleCell_withSecondaryGnb.secondaryGnb.sctp "Congestion Window 28:10.0.1.1:stddev" nan
scalar SingleCell_withSecondaryGnb.secondaryGnb.sctp "Congestion Window 28:10.0.1.1:min" inf
scalar SingleCell_withSecondaryGnb.secondaryGnb.sctp "Congestion Window 28:10.0.1.1:max" -inf
scalar SingleCell_withSecondaryGnb.secondaryGnb.sctp "Congestion Window 28:10.0.1.1:starttime" nan
scalar SingleCell_withSecondaryGnb.secondaryGnb.sctp "Congestion Window 28:10.0.1.1:endtime" nan
scalar SingleCell_withSecondaryGnb.secondaryGnb.sctp "Bandwidth 28:10.0.1.1:count" 0
scalar SingleCell_withSecondaryGnb.secondaryGnb.sctp "Bandwidth 28:10.0.1.1:sum" 0
scalar SingleCell_withSecondaryGnb.secondaryGnb.sctp "Bandwidth 28:10.0.1.1:sumweights" 0
scalar SingleCell_withSecondaryGnb.secondaryGnb.sctp "Bandwidth 28:10.0.1.1:mean" -nan
scalar SingleCell_withSecondaryGnb.secondaryGnb.sctp "Bandwidth 28:10.0.1.1:stddev" nan
scalar SingleCell_withSecondaryGnb.secondaryGnb.sctp "Bandwidth 28:10.0.1.1:min" inf
scalar SingleCell_withSecondaryGnb.secondaryGnb.sctp "Bandwidth 28:10.0.1.1:max" -inf
scalar SingleCell_withSecondaryGnb.secondaryGnb.sctp "Bandwidth 28:10.0.1.1:starttime" nan
scalar SingleCell_withSecondaryGnb.secondaryGnb.sctp "Bandwidth 28:10.0.1.1:endtime" nan
scalar SingleCell_withSecondaryGnb.secondaryGnb.sctp "RTO 28:10.0.1.1:count" 0
scalar SingleCell_withSecondaryGnb.secondaryGnb.sctp "RTO 28:10.0.1.1:sum" 0
scalar SingleCell_withSecondaryGnb.secondaryGnb.sctp "RTO 28:10.0.1.1:sumweights" 0
scalar SingleCell_withSecondaryGnb.secondaryGnb.sctp "RTO 28:10.0.1.1:mean" -nan
scalar SingleCell_withSecondaryGnb.secondaryGnb.sctp "RTO 28:10.0.1.1:stddev" nan
scalar SingleCell_withSecondaryGnb.secondaryGnb.sctp "RTO 28:10.0.1.1:min" inf
scalar SingleCell_withSecondaryGnb.secondaryGnb.sctp "RTO 28:10.0.1.1:max" -inf
scalar SingleCell_withSecondaryGnb.secondaryGnb.sctp "RTO 28:10.0.1.1:starttime" nan
scalar SingleCell_withSecondaryGnb.secondaryGnb.sctp "RTO 28:10.0.1.1:endtime" nan
scalar SingleCell_withSecondaryGnb.secondaryGnb.sctp "Slow Start Threshold 28:10.0.2.1:count" 0
scalar SingleCell_withSecondaryGnb.secondaryGnb.sctp "Slow Start Threshold 28:10.0.2.1:sum" 0
scalar SingleCell_withSecondaryGnb.secondaryGnb.sctp "Slow Start Threshold 28:10.0.2.1:sumweights" 0
scalar SingleCell_withSecondaryGnb.secondaryGnb.sctp "Slow Start Threshold 28:10.0.2.1:mean" -nan
scalar SingleCell_withSecondaryGnb.secondaryGnb.sctp "Slow Start Threshold 28:10.0.2.1:stddev" nan
scalar SingleCell_withSecondaryGnb.secondaryGnb.sctp "Slow Start Threshold 28:10.0.2.1:min" inf
scalar SingleCell_withSecondaryGnb.secondaryGnb.sctp "Slow Start Threshold 28:10.0.2.1:max" -inf
scalar SingleCell_withSecondaryGnb.secondaryGnb.sctp "Slow Start Threshold 28:10.0.2.1:starttime" nan
scalar SingleCell_withSecondaryGnb.secondaryGnb.sctp "Slow Start Threshold 28:10.0.2.1:endtime" nan
scalar SingleCell_withSecondaryGnb.secondaryGnb.sctp "Congestion Window 28:10.0.2.1:count" 0
scalar SingleCell_withSecondaryGnb.secondaryGnb.sctp "Congestion Window 28:10.0.2.1:sum" 0
scalar SingleCell_withSecondaryGnb.secondaryGnb.sctp "Congestion Window 28:10.0.2.1:sumweights" 0
scalar SingleCell_withSecondaryGnb.secondaryGnb.sctp "Congestion Window 28:10.0.2.1:mean" -nan
scalar SingleCell_withSecondaryGnb.secondaryGnb.sctp "Congestion Window 28:10.0.2.1:stddev" nan
scalar SingleCell_withSecondaryGnb.secondaryGnb.sctp "Congestion Window 28:10.0.2.1:min" inf
scalar SingleCell_withSecondaryGnb.secondaryGnb.sctp "Congestion Window 28:10.0.2.1:max" -inf
scalar SingleCell_withSecondaryGnb.secondaryGnb.sctp "Congestion Window 28:10.0.2.1:starttime" nan
scalar SingleCell_withSecondaryGnb.secondaryGnb.sctp "Congestion Window 28:10.0.2.1:endtime" nan
scalar SingleCell_withSecondaryGnb.secondaryGnb.sctp "Bandwidth 28:10.0.2.1:count" 0
scalar SingleCell_withSecondaryGnb.secondaryGnb.sctp "Bandwidth 28:10.0.2.1:sum" 0
scalar SingleCell_withSecondaryGnb.secondaryGnb.sctp "Bandwidth 28:10.0.2.1:sumweights" 0
scalar SingleCell_withSecondaryGnb.secondaryGnb.sctp "Bandwidth 28:10.0.2.1:mean" -nan
scalar SingleCell_withSecondaryGnb.secondaryGnb.sctp "Bandwidth 28:10.0.2.1:stddev" nan
scalar SingleCell_withSecondaryGnb.secondaryGnb.sctp "Bandwidth 28:10.0.2.1:min" inf
scalar SingleCell_withSecondaryGnb.secondaryGnb.sctp "Bandwidth 28:10.0.2.1:max" -inf
scalar SingleCell_withSecondaryGnb.secondaryGnb.sctp "Bandwidth 28:10.0.2.1:starttime" nan
scalar SingleCell_withSecondaryGnb.secondaryGnb.sctp "Bandwidth 28:10.0.2.1:endtime" nan
scalar SingleCell_withSecondaryGnb.secondaryGnb.sctp "RTO 28:10.0.2.1:count" 0
scalar SingleCell_withSecondaryGnb.secondaryGnb.sctp "RTO 28:10.0.2.1:sum" 0
scalar SingleCell_withSecondaryGnb.secondaryGnb.sctp "RTO 28:10.0.2.1:sumweights" 0
scalar SingleCell_withSecondaryGnb.secondaryGnb.sctp "RTO 28:10.0.2.1:mean" -nan
scalar SingleCell_withSecondaryGnb.secondaryGnb.sctp "RTO 28:10.0.2.1:stddev" nan
scalar SingleCell_withSecondaryGnb.secondaryGnb.sctp "RTO 28:10.0.2.1:min" inf
scalar SingleCell_withSecondaryGnb.secondaryGnb.sctp "RTO 28:10.0.2.1:max" -inf
scalar SingleCell_withSecondaryGnb.secondaryGnb.sctp "RTO 28:10.0.2.1:starttime" nan
scalar SingleCell_withSecondaryGnb.secondaryGnb.sctp "RTO 28:10.0.2.1:endtime" nan
scalar SingleCell_withSecondaryGnb.secondaryGnb.sctp "Slow Start Threshold 28:192.168.3.1:count" 0
scalar SingleCell_withSecondaryGnb.secondaryGnb.sctp "Slow Start Threshold 28:192.168.3.1:sum" 0
scalar SingleCell_withSecondaryGnb.secondaryGnb.sctp "Slow Start Threshold 28:192.168.3.1:sumweights" 0
scalar SingleCell_withSecondaryGnb.secondaryGnb.sctp "Slow Start Threshold 28:192.168.3.1:mean" -nan
scalar SingleCell_withSecondaryGnb.secondaryGnb.sctp "Slow Start Threshold 28:192.168.3.1:stddev" nan
scalar SingleCell_withSecondaryGnb.secondaryGnb.sctp "Slow Start Threshold 28:192.168.3.1:min" inf
scalar SingleCell_withSecondaryGnb.secondaryGnb.sctp "Slow Start Threshold 28:192.168.3.1:max" -inf
scalar SingleCell_withSecondaryGnb.secondaryGnb.sctp "Slow Start Threshold 28:192.168.3.1:starttime" nan
scalar SingleCell_withSecondaryGnb.secondaryGnb.sctp "Slow Start Threshold 28:192.168.3.1:endtime" nan
scalar SingleCell_withSecondaryGnb.secondaryGnb.sctp "Congestion Window 28:192.168.3.1:count" 0
scalar SingleCell_withSecondaryGnb.secondaryGnb.sctp "Congestion Window 28:192.168.3.1:sum" 0
scalar SingleCell_withSecondaryGnb.secondaryGnb.sctp "Congestion Window 28:192.168.3.1:sumweights" 0
scalar SingleCell_withSecondaryGnb.secondaryGnb.sctp "Congestion Window 28:192.168.3.1:mean" -nan
scalar SingleCell_withSecondaryGnb.secondaryGnb.sctp "Congestion Window 28:192.168.3.1:stddev" nan
scalar SingleCell_withSecondaryGnb.secondaryGnb.sctp "Congestion Window 28:192.168.3.1:min" inf
scalar SingleCell_withSecondaryGnb.secondaryGnb.sctp "Congestion Window 28:192.168.3.1:max" -inf
scalar SingleCell_withSecondaryGnb.secondaryGnb.sctp "Congestion Window 28:192.168.3.1:starttime" nan
scalar SingleCell_withSecondaryGnb.secondaryGnb.sctp "Congestion Window 28:192.168.3.1:endtime" nan
scalar SingleCell_withSecondaryGnb.secondaryGnb.sctp "Bandwidth 28:192.168.3.1:count" 0
scalar SingleCell_withSecondaryGnb.secondaryGnb.sctp "Bandwidth 28:192.168.3.1:sum" 0
scalar SingleCell_withSecondaryGnb.secondaryGnb.sctp "Bandwidth 28:192.168.3.1:sumweights" 0
scalar SingleCell_withSecondaryGnb.secondaryGnb.sctp "Bandwidth 28:192.168.3.1:mean" -nan
scalar SingleCell_withSecondaryGnb.secondaryGnb.sctp "Bandwidth 28:192.168.3.1:stddev" nan
scalar SingleCell_withSecondaryGnb.secondaryGnb.sctp "Bandwidth 28:192.168.3.1:min" inf
scalar SingleCell_withSecondaryGnb.secondaryGnb.sctp "Bandwidth 28:192.168.3.1:max" -inf
scalar SingleCell_withSecondaryGnb.secondaryGnb.sctp "Bandwidth 28:192.168.3.1:starttime" nan
scalar SingleCell_withSecondaryGnb.secondaryGnb.sctp "Bandwidth 28:192.168.3.1:endtime" nan
scalar SingleCell_withSecondaryGnb.secondaryGnb.sctp "RTO 28:192.168.3.1:count" 0
scalar SingleCell_withSecondaryGnb.secondaryGnb.sctp "RTO 28:192.168.3.1:sum" 0
scalar SingleCell_withSecondaryGnb.secondaryGnb.sctp "RTO 28:192.168.3.1:sumweights" 0
scalar SingleCell_withSecondaryGnb.secondaryGnb.sctp "RTO 28:192.168.3.1:mean" -nan
scalar SingleCell_withSecondaryGnb.secondaryGnb.sctp "RTO 28:192.168.3.1:stddev" nan
scalar SingleCell_withSecondaryGnb.secondaryGnb.sctp "RTO 28:192.168.3.1:min" inf
scalar SingleCell_withSecondaryGnb.secondaryGnb.sctp "RTO 28:192.168.3.1:max" -inf
scalar SingleCell_withSecondaryGnb.secondaryGnb.sctp "RTO 28:192.168.3.1:starttime" nan
scalar SingleCell_withSecondaryGnb.secondaryGnb.sctp "RTO 28:192.168.3.1:endtime" nan

