version 3
run MultiCell-CBR-DL-0-20260713-09:26:58-322246
attr configname MultiCell-CBR-DL
attr datetime 20260713-09:26:58
attr datetimef 20260713-092658
attr experiment MultiCell-CBR-DL
attr inifile omnetpp.ini
attr iterationvars "$u=0, $numUe=10, $numUeApps=2"
attr iterationvarsd u=0/numUe=10/numUeApps=2
attr iterationvarsf u=0,numUe=10,numUeApps=2-
attr measurement "$u=0, $numUe=10, $numUeApps=2"
attr network simu5g.simulations.nr.networks.MultiCell_withSecondaryGnb
attr processid 322246
attr repetition 0
attr replication #0
attr resultdir results
attr runnumber 0
attr seedset 0
itervar numUe 10
itervar numUeApps 2
itervar u 0
config **.param-recording false
config image-path /home/andras/projects/Simu5G-fork/simu5g-fork/images
config output-scalar-file results/omnetpp.ini-MultiCell-CBR-DL-#0.sca
config output-scalar-precision 17
config output-vector-file results/omnetpp.ini-MultiCell-CBR-DL-#0.vec
config output-vector-precision 17
config record-eventlog false
config sim-time-limit 50s
config extends "MultiCell, CBR-DL"
config network simu5g.simulations.nr.networks.MultiCell_withSecondaryGnb
config sim-time-limit 50s
config *.carrierAggregation.numComponentCarriers 2
config *.carrierAggregation.componentCarrier[0].numerologyIndex 0
config *.carrierAggregation.componentCarrier[0].carrierFrequency 2GHz
config *.carrierAggregation.componentCarrier[0].numBands 6
config *.carrierAggregation.componentCarrier[1].numerologyIndex 0
config *.carrierAggregation.componentCarrier[1].carrierFrequency 6GHz
config *.carrierAggregation.componentCarrier[1].numBands 6
config *.masterEnb*.cellularNic.numCarriers 1
config *.masterEnb*.cellularNic.channelModel[0].componentCarrierModule "\"carrierAggregation.componentCarrier[0]\""
config *.secondaryGnb*.cellularNic.numCarriers 1
config *.secondaryGnb*.cellularNic.channelModel[0].componentCarrierModule "\"carrierAggregation.componentCarrier[1]\""
config *.ue[*].cellularNic.numCarriers 1
config *.ue[*].cellularNic.numNrCarriers 1
config *.ue[*].cellularNic.channelModel[0].componentCarrierModule "\"carrierAggregation.componentCarrier[0]\""
config *.ue[*].cellularNic.nrChannelModel[0].componentCarrierModule "\"carrierAggregation.componentCarrier[1]\""
config *.masterEnb1.mobility.initialX 300m
config *.masterEnb1.mobility.initialY 300m
config *.masterEnb2.mobility.initialX 800m
config *.masterEnb2.mobility.initialY 300m
config *.secondaryGnb1.mobility.initialX 300m
config *.secondaryGnb1.mobility.initialY 600m
config *.secondaryGnb2.mobility.initialX 800m
config *.secondaryGnb2.mobility.initialY 600m
config *.masterEnb*.cellularNic.typename LteNicEnbD2D
config *.masterEnb*.cellularNic.pdcpMux.isNR true
config *.masterEnb*.cellularNic.pdcpLowerMux.isNR true
config *.masterEnb*.cellularNic.pdcpEntityManager.isNR true
config *.masterEnb*.cellularNic.rrc.bearerManagement.pdcpRxEntityModuleType "\"simu5g.stack.pdcp.NrRxPdcpEntity\""
config *.masterEnb*.cellularNic.rrc.bearerManagement.pdcpTxEntityModuleType "\"simu5g.stack.pdcp.NrTxPdcpEntity\""
config *.secondaryGnb1.masterId 1
config *.secondaryGnb2.masterId 3
config **.dualConnectivityEnabled true
config *.masterEnb*.numX2Apps 2
config *.secondaryGnb*.numX2Apps 1
config *.*nb*.x2App[*].server.localPort "5000 + ancestorIndex(1)"
config *.secondaryGnb1.x2App[0].client.connectAddress "\"masterEnb1%x2ppp0\""
config *.masterEnb1.x2App[0].client.connectAddress "\"secondaryGnb1%x2ppp0\""
config *.masterEnb1.x2App[1].client.connectAddress "\"masterEnb2%x2ppp1\""
config *.masterEnb2.x2App[0].client.connectAddress "\"masterEnb1%x2ppp1\""
config *.masterEnb2.x2App[1].client.connectAddress "\"secondaryGnb2%x2ppp0\""
config *.secondaryGnb2.x2App[0].client.connectAddress "\"masterEnb2%x2ppp0\""
config *.numUe 10
config *.ue[*].servingNodeId 1
config *.ue[*].nrServingNodeId 2
config **.mobility.constraintAreaMaxX 1100m
config **.mobility.constraintAreaMaxY 600m
config **.mobility.constraintAreaMinX 0m
config **.mobility.constraintAreaMinY 300m
config *.ue[*].mobility.typename RandomWaypointMobility
config *.ue[*].mobility.initialX uniform(0m,1100m)
config *.ue[*].mobility.initialY uniform(300m,600m)
config *.ue[*].mobility.speed uniform(5mps,15mps)
config *.ue[*].numApps 2
config *.server.numApps 10*2
config *.ue[*].app[*].typename CbrReceiver
config *.ue[*].app[0].localPort 1000
config *.ue[*].app[1].localPort 10000
config *.server.app[*].samplingTime 0.02s
config *.server.app[0..9].destAddress "\"ue[\"+string(ancestorIndex(0))+\"]\""
config *.server.app[10..19].destAddress "\"ue[\"+string(ancestorIndex(0)-10)+\"]\""
config *.server.app[0..9].destPort 1000
config *.server.app[10..19].destPort 10000
config *.server.app[0..9].tos 0
config *.server.app[10..19].tos 10
config *.server.app[*].localPort 3088+ancestorIndex(0)
config *.server.app[*].typename CbrSender
config *.server.app[*].startTime uniform(0.01s,0.02s)
config sim-time-limit 20s
config **.routingRecorder.enabled false
config seed-set 0
config **.sctp.**.scalar-recording false
config **.sctp.**.vector-recording false
config **.vector-recording true
config output-scalar-file "results/MultiCell-CBR-DL/$u=0, $numUe=10, $numUeApps=2-0.sca"
config output-vector-file "results/MultiCell-CBR-DL/$u=0, $numUe=10, $numUeApps=2-0.vec"
config **.mobility.constraintAreaMinZ 0m
config **.mobility.constraintAreaMaxZ 0m
config **.mobility.initFromDisplayString false
config **.eNodeBTxPower 40dBm
config **.sctp.nagleEnabled false
config **.sctp.enableHeartbeats false
config **.downlinkInterference true
config **.uplinkInterference true
config **.enableHandover true
config **.fbPeriod 12tti
config **.targetBler 0.01
config **.blerShift 5
config *.configurator.config "xmldoc(\"./demo.xml\")"

scalar MultiCell_withSecondaryGnb.masterEnb1.x2App[0].client ums 1452
scalar MultiCell_withSecondaryGnb.masterEnb1.x2App[1].client ums 1452
scalar MultiCell_withSecondaryGnb.secondaryGnb1.x2App[0].client ums 1452
scalar MultiCell_withSecondaryGnb.masterEnb2.x2App[0].client ums 1452
scalar MultiCell_withSecondaryGnb.masterEnb2.x2App[1].client ums 1452
scalar MultiCell_withSecondaryGnb.secondaryGnb2.x2App[0].client ums 1452
scalar MultiCell_withSecondaryGnb.server.lo[0].lo rcvdPkFromHl:count 0
scalar MultiCell_withSecondaryGnb.server.lo[0].lo rcvdPkFromHl:sum(packetBytes) 0
scalar MultiCell_withSecondaryGnb.server.lo[0].lo passedUpPk:count 0
scalar MultiCell_withSecondaryGnb.server.lo[0].lo passedUpPk:sum(packetBytes) 0
scalar MultiCell_withSecondaryGnb.server.lo[0] packetDropInterfaceDown:count 0
scalar MultiCell_withSecondaryGnb.server.lo[0] packetDropInterfaceDown:sum(packetBytes) 0
scalar MultiCell_withSecondaryGnb.server.lo[0] packetDropNoCarrier:count 0
scalar MultiCell_withSecondaryGnb.server.lo[0] packetDropNoCarrier:sum(packetBytes) 0
scalar MultiCell_withSecondaryGnb.server.ppp[0].queue queueLength:last 0
scalar MultiCell_withSecondaryGnb.server.ppp[0].queue queueLength:max 0
scalar MultiCell_withSecondaryGnb.server.ppp[0].queue queueLength:timeavg 0
scalar MultiCell_withSecondaryGnb.server.ppp[0].queue queueBitLength:last 0
scalar MultiCell_withSecondaryGnb.server.ppp[0].queue queueBitLength:max 0
scalar MultiCell_withSecondaryGnb.server.ppp[0].queue queueBitLength:timeavg 0
scalar MultiCell_withSecondaryGnb.server.ppp[0].queue outgoingPackets:count 50000
scalar MultiCell_withSecondaryGnb.server.ppp[0].queue outgoingPacketLengths:sum 27200000
scalar MultiCell_withSecondaryGnb.server.ppp[0].queue incomingPackets:count 50000
scalar MultiCell_withSecondaryGnb.server.ppp[0].queue incomingPacketLengths:sum 27200000
scalar MultiCell_withSecondaryGnb.server.ppp[0].queue droppedPacketsQueueOverflow:count 0
scalar MultiCell_withSecondaryGnb.server.ppp[0].queue droppedPacketLengthsQueueOverflow:sum 0
scalar MultiCell_withSecondaryGnb.server.ppp[0].ppp transmissionState:timeavg 6.0000000000048784e-05
scalar MultiCell_withSecondaryGnb.server.ppp[0].ppp rxPkOk:count 0
scalar MultiCell_withSecondaryGnb.server.ppp[0].ppp rxPkOk:sum(packetBytes) 0
scalar MultiCell_withSecondaryGnb.server.ppp[0].ppp txPk:count 50000
scalar MultiCell_withSecondaryGnb.server.ppp[0].ppp txPk:sum(packetBytes) 3750000
scalar MultiCell_withSecondaryGnb.server.ppp[0].ppp rcvdPkFromHl:count 50000
scalar MultiCell_withSecondaryGnb.server.ppp[0].ppp rcvdPkFromHl:sum(packetBytes) 3400000
scalar MultiCell_withSecondaryGnb.server.ppp[0].ppp passedUpPk:count 0
scalar MultiCell_withSecondaryGnb.server.ppp[0].ppp passedUpPk:sum(packetBytes) 0
scalar MultiCell_withSecondaryGnb.server.ppp[0].ppp packetDropIncorrectlyReceived:count 0
scalar MultiCell_withSecondaryGnb.server.ppp[0].ppp packetDropIncorrectlyReceived:sum(packetBytes) 0
scalar MultiCell_withSecondaryGnb.server.ppp[0].ppp packetDropInterfaceDown:count 0
scalar MultiCell_withSecondaryGnb.server.ppp[0].ppp packetDropInterfaceDown:sum(packetBytes) 0
scalar MultiCell_withSecondaryGnb.server.ppp[0] packetDropInterfaceDown:count 0
scalar MultiCell_withSecondaryGnb.server.ppp[0] packetDropInterfaceDown:sum(packetBytes) 0
scalar MultiCell_withSecondaryGnb.server.ppp[0] packetDropNoCarrier:count 0
scalar MultiCell_withSecondaryGnb.server.ppp[0] packetDropNoCarrier:sum(packetBytes) 0
scalar MultiCell_withSecondaryGnb.server.ipv4.ip packetDropAddressResolutionFailed:count 0
scalar MultiCell_withSecondaryGnb.server.ipv4.ip packetDropAddressResolutionFailed:sum(packetBytes) 0
scalar MultiCell_withSecondaryGnb.server.ipv4.ip packetDropHopLimitReached:count 0
scalar MultiCell_withSecondaryGnb.server.ipv4.ip packetDropHopLimitReached:sum(packetBytes) 0
scalar MultiCell_withSecondaryGnb.server.ipv4.ip packetDropForwardingDisabled:count 0
scalar MultiCell_withSecondaryGnb.server.ipv4.ip packetDropForwardingDisabled:sum(packetBytes) 0
scalar MultiCell_withSecondaryGnb.server.ipv4.ip packetDropNoInterfaceFound:count 0
scalar MultiCell_withSecondaryGnb.server.ipv4.ip packetDropNoInterfaceFound:sum(packetBytes) 0
scalar MultiCell_withSecondaryGnb.server.ipv4.ip packetDropNoRouteFound:count 0
scalar MultiCell_withSecondaryGnb.server.ipv4.ip packetDropNoRouteFound:sum(packetBytes) 0
scalar MultiCell_withSecondaryGnb.server.ipv4.ip packetDropUndefined:count 0
scalar MultiCell_withSecondaryGnb.server.ipv4.ip packetDropUndefined:sum(packetBytes) 0
scalar MultiCell_withSecondaryGnb.server.ipv4.arp arpResolutionFailed:count 0
scalar MultiCell_withSecondaryGnb.server.ipv4.arp arpResolutionCompleted:count 0
scalar MultiCell_withSecondaryGnb.server.ipv4.arp arpResolutionInitiated:count 0
scalar MultiCell_withSecondaryGnb.server.ipv4.arp arpReplySent:count 0
scalar MultiCell_withSecondaryGnb.server.ipv4.arp arpReplySent:sum(packetBytes) 0
scalar MultiCell_withSecondaryGnb.server.ipv4.arp arpRequestSent:count 0
scalar MultiCell_withSecondaryGnb.server.ipv4.arp arpRequestSent:sum(packetBytes) 0
scalar MultiCell_withSecondaryGnb.server.udp packetReceived:count 0
scalar MultiCell_withSecondaryGnb.server.udp packetReceived:sum(packetBytes) 0
scalar MultiCell_withSecondaryGnb.server.udp packetSent:count 50000
scalar MultiCell_withSecondaryGnb.server.udp packetSent:sum(packetBytes) 2400000
scalar MultiCell_withSecondaryGnb.server.udp passedUpPk:count 0
scalar MultiCell_withSecondaryGnb.server.udp droppedPkWrongPort:count 0
scalar MultiCell_withSecondaryGnb.server.udp droppedPkBadChecksum:count 0
scalar MultiCell_withSecondaryGnb.server.app[0] cbrGeneratedBytes:mean 40
scalar MultiCell_withSecondaryGnb.server.app[0] cbrGeneratedBytes:last(sumPerDuration) 2000.07539545245
scalar MultiCell_withSecondaryGnb.server.app[0] cbrGeneratedThroughput:simu5g_rateavg 2000
scalar MultiCell_withSecondaryGnb.server.app[1] cbrGeneratedBytes:mean 40
scalar MultiCell_withSecondaryGnb.server.app[1] cbrGeneratedBytes:last(sumPerDuration) 2000.2572715218214
scalar MultiCell_withSecondaryGnb.server.app[1] cbrGeneratedThroughput:simu5g_rateavg 2000
scalar MultiCell_withSecondaryGnb.server.app[2] cbrGeneratedBytes:mean 40
scalar MultiCell_withSecondaryGnb.server.app[2] cbrGeneratedBytes:last(sumPerDuration) 2000.2095883683407
scalar MultiCell_withSecondaryGnb.server.app[2] cbrGeneratedThroughput:simu5g_rateavg 2000
scalar MultiCell_withSecondaryGnb.server.app[3] cbrGeneratedBytes:mean 40
scalar MultiCell_withSecondaryGnb.server.app[3] cbrGeneratedBytes:last(sumPerDuration) 2000.0264643539765
scalar MultiCell_withSecondaryGnb.server.app[3] cbrGeneratedThroughput:simu5g_rateavg 2000
scalar MultiCell_withSecondaryGnb.server.app[4] cbrGeneratedBytes:mean 40
scalar MultiCell_withSecondaryGnb.server.app[4] cbrGeneratedBytes:last(sumPerDuration) 2000.1907557952718
scalar MultiCell_withSecondaryGnb.server.app[4] cbrGeneratedThroughput:simu5g_rateavg 2000
scalar MultiCell_withSecondaryGnb.server.app[5] cbrGeneratedBytes:mean 40
scalar MultiCell_withSecondaryGnb.server.app[5] cbrGeneratedBytes:last(sumPerDuration) 2000.2535012633732
scalar MultiCell_withSecondaryGnb.server.app[5] cbrGeneratedThroughput:simu5g_rateavg 2000
scalar MultiCell_withSecondaryGnb.server.app[6] cbrGeneratedBytes:mean 40
scalar MultiCell_withSecondaryGnb.server.app[6] cbrGeneratedBytes:last(sumPerDuration) 2000.2998367108885
scalar MultiCell_withSecondaryGnb.server.app[6] cbrGeneratedThroughput:simu5g_rateavg 2000
scalar MultiCell_withSecondaryGnb.server.app[7] cbrGeneratedBytes:mean 40
scalar MultiCell_withSecondaryGnb.server.app[7] cbrGeneratedBytes:last(sumPerDuration) 2000.029543884094
scalar MultiCell_withSecondaryGnb.server.app[7] cbrGeneratedThroughput:simu5g_rateavg 2000
scalar MultiCell_withSecondaryGnb.server.app[8] cbrGeneratedBytes:mean 40
scalar MultiCell_withSecondaryGnb.server.app[8] cbrGeneratedBytes:last(sumPerDuration) 2000.1579952725872
scalar MultiCell_withSecondaryGnb.server.app[8] cbrGeneratedThroughput:simu5g_rateavg 2000
scalar MultiCell_withSecondaryGnb.server.app[9] cbrGeneratedBytes:mean 40
scalar MultiCell_withSecondaryGnb.server.app[9] cbrGeneratedBytes:last(sumPerDuration) 2000.3766439539788
scalar MultiCell_withSecondaryGnb.server.app[9] cbrGeneratedThroughput:simu5g_rateavg 2000
scalar MultiCell_withSecondaryGnb.server.app[10] cbrGeneratedBytes:mean 40
scalar MultiCell_withSecondaryGnb.server.app[10] cbrGeneratedBytes:last(sumPerDuration) 2000.278876956437
scalar MultiCell_withSecondaryGnb.server.app[10] cbrGeneratedThroughput:simu5g_rateavg 2000
scalar MultiCell_withSecondaryGnb.server.app[11] cbrGeneratedBytes:mean 40
scalar MultiCell_withSecondaryGnb.server.app[11] cbrGeneratedBytes:last(sumPerDuration) 2000.3120726991278
scalar MultiCell_withSecondaryGnb.server.app[11] cbrGeneratedThroughput:simu5g_rateavg 2000
scalar MultiCell_withSecondaryGnb.server.app[12] cbrGeneratedBytes:mean 40
scalar MultiCell_withSecondaryGnb.server.app[12] cbrGeneratedBytes:last(sumPerDuration) 2000.1691006925535
scalar MultiCell_withSecondaryGnb.server.app[12] cbrGeneratedThroughput:simu5g_rateavg 2000
scalar MultiCell_withSecondaryGnb.server.app[13] cbrGeneratedBytes:mean 40
scalar MultiCell_withSecondaryGnb.server.app[13] cbrGeneratedBytes:last(sumPerDuration) 2000.0629307740389
scalar MultiCell_withSecondaryGnb.server.app[13] cbrGeneratedThroughput:simu5g_rateavg 2000
scalar MultiCell_withSecondaryGnb.server.app[14] cbrGeneratedBytes:mean 40
scalar MultiCell_withSecondaryGnb.server.app[14] cbrGeneratedBytes:last(sumPerDuration) 2000.3321839155547
scalar MultiCell_withSecondaryGnb.server.app[14] cbrGeneratedThroughput:simu5g_rateavg 2000
scalar MultiCell_withSecondaryGnb.server.app[15] cbrGeneratedBytes:mean 40
scalar MultiCell_withSecondaryGnb.server.app[15] cbrGeneratedBytes:last(sumPerDuration) 2000.3345867326582
scalar MultiCell_withSecondaryGnb.server.app[15] cbrGeneratedThroughput:simu5g_rateavg 2000
scalar MultiCell_withSecondaryGnb.server.app[16] cbrGeneratedBytes:mean 40
scalar MultiCell_withSecondaryGnb.server.app[16] cbrGeneratedBytes:last(sumPerDuration) 2000.3362688925197
scalar MultiCell_withSecondaryGnb.server.app[16] cbrGeneratedThroughput:simu5g_rateavg 2000
scalar MultiCell_withSecondaryGnb.server.app[17] cbrGeneratedBytes:mean 40
scalar MultiCell_withSecondaryGnb.server.app[17] cbrGeneratedBytes:last(sumPerDuration) 2000.2959427683022
scalar MultiCell_withSecondaryGnb.server.app[17] cbrGeneratedThroughput:simu5g_rateavg 2000
scalar MultiCell_withSecondaryGnb.server.app[18] cbrGeneratedBytes:mean 40
scalar MultiCell_withSecondaryGnb.server.app[18] cbrGeneratedBytes:last(sumPerDuration) 2000.2332152943961
scalar MultiCell_withSecondaryGnb.server.app[18] cbrGeneratedThroughput:simu5g_rateavg 2000
scalar MultiCell_withSecondaryGnb.server.app[19] cbrGeneratedBytes:mean 40
scalar MultiCell_withSecondaryGnb.server.app[19] cbrGeneratedBytes:last(sumPerDuration) 2000.2515446774639
scalar MultiCell_withSecondaryGnb.server.app[19] cbrGeneratedThroughput:simu5g_rateavg 2000
scalar MultiCell_withSecondaryGnb.router.lo[0].lo rcvdPkFromHl:count 0
scalar MultiCell_withSecondaryGnb.router.lo[0].lo rcvdPkFromHl:sum(packetBytes) 0
scalar MultiCell_withSecondaryGnb.router.lo[0].lo passedUpPk:count 0
scalar MultiCell_withSecondaryGnb.router.lo[0].lo passedUpPk:sum(packetBytes) 0
scalar MultiCell_withSecondaryGnb.router.lo[0] packetDropInterfaceDown:count 0
scalar MultiCell_withSecondaryGnb.router.lo[0] packetDropInterfaceDown:sum(packetBytes) 0
scalar MultiCell_withSecondaryGnb.router.lo[0] packetDropNoCarrier:count 0
scalar MultiCell_withSecondaryGnb.router.lo[0] packetDropNoCarrier:sum(packetBytes) 0
scalar MultiCell_withSecondaryGnb.router.ppp[0].queue queueLength:last 0
scalar MultiCell_withSecondaryGnb.router.ppp[0].queue queueLength:max 0
scalar MultiCell_withSecondaryGnb.router.ppp[0].queue queueLength:timeavg 0
scalar MultiCell_withSecondaryGnb.router.ppp[0].queue queueBitLength:last 0
scalar MultiCell_withSecondaryGnb.router.ppp[0].queue queueBitLength:max 0
scalar MultiCell_withSecondaryGnb.router.ppp[0].queue queueBitLength:timeavg 0
scalar MultiCell_withSecondaryGnb.router.ppp[0].queue outgoingPackets:count 0
scalar MultiCell_withSecondaryGnb.router.ppp[0].queue outgoingPacketLengths:sum 0
scalar MultiCell_withSecondaryGnb.router.ppp[0].queue incomingPackets:count 0
scalar MultiCell_withSecondaryGnb.router.ppp[0].queue incomingPacketLengths:sum 0
scalar MultiCell_withSecondaryGnb.router.ppp[0].queue droppedPacketsQueueOverflow:count 0
scalar MultiCell_withSecondaryGnb.router.ppp[0].queue droppedPacketLengthsQueueOverflow:sum 0
scalar MultiCell_withSecondaryGnb.router.ppp[0].ppp transmissionState:timeavg 0
scalar MultiCell_withSecondaryGnb.router.ppp[0].ppp rxPkOk:count 50000
scalar MultiCell_withSecondaryGnb.router.ppp[0].ppp rxPkOk:sum(packetBytes) 3750000
scalar MultiCell_withSecondaryGnb.router.ppp[0].ppp txPk:count 0
scalar MultiCell_withSecondaryGnb.router.ppp[0].ppp txPk:sum(packetBytes) 0
scalar MultiCell_withSecondaryGnb.router.ppp[0].ppp rcvdPkFromHl:count 0
scalar MultiCell_withSecondaryGnb.router.ppp[0].ppp rcvdPkFromHl:sum(packetBytes) 0
scalar MultiCell_withSecondaryGnb.router.ppp[0].ppp passedUpPk:count 50000
scalar MultiCell_withSecondaryGnb.router.ppp[0].ppp passedUpPk:sum(packetBytes) 3400000
scalar MultiCell_withSecondaryGnb.router.ppp[0].ppp packetDropIncorrectlyReceived:count 0
scalar MultiCell_withSecondaryGnb.router.ppp[0].ppp packetDropIncorrectlyReceived:sum(packetBytes) 0
scalar MultiCell_withSecondaryGnb.router.ppp[0].ppp packetDropInterfaceDown:count 0
scalar MultiCell_withSecondaryGnb.router.ppp[0].ppp packetDropInterfaceDown:sum(packetBytes) 0
scalar MultiCell_withSecondaryGnb.router.ppp[0] packetDropInterfaceDown:count 0
scalar MultiCell_withSecondaryGnb.router.ppp[0] packetDropInterfaceDown:sum(packetBytes) 0
scalar MultiCell_withSecondaryGnb.router.ppp[0] packetDropNoCarrier:count 0
scalar MultiCell_withSecondaryGnb.router.ppp[0] packetDropNoCarrier:sum(packetBytes) 0
scalar MultiCell_withSecondaryGnb.router.ppp[1].queue queueLength:last 0
scalar MultiCell_withSecondaryGnb.router.ppp[1].queue queueLength:max 0
scalar MultiCell_withSecondaryGnb.router.ppp[1].queue queueLength:timeavg 0
scalar MultiCell_withSecondaryGnb.router.ppp[1].queue queueBitLength:last 0
scalar MultiCell_withSecondaryGnb.router.ppp[1].queue queueBitLength:max 0
scalar MultiCell_withSecondaryGnb.router.ppp[1].queue queueBitLength:timeavg 0
scalar MultiCell_withSecondaryGnb.router.ppp[1].queue outgoingPackets:count 50000
scalar MultiCell_withSecondaryGnb.router.ppp[1].queue outgoingPacketLengths:sum 27200000
scalar MultiCell_withSecondaryGnb.router.ppp[1].queue incomingPackets:count 50000
scalar MultiCell_withSecondaryGnb.router.ppp[1].queue incomingPacketLengths:sum 27200000
scalar MultiCell_withSecondaryGnb.router.ppp[1].queue droppedPacketsQueueOverflow:count 0
scalar MultiCell_withSecondaryGnb.router.ppp[1].queue droppedPacketLengthsQueueOverflow:sum 0
scalar MultiCell_withSecondaryGnb.router.ppp[1].ppp transmissionState:timeavg 6.0000000000048784e-05
scalar MultiCell_withSecondaryGnb.router.ppp[1].ppp rxPkOk:count 0
scalar MultiCell_withSecondaryGnb.router.ppp[1].ppp rxPkOk:sum(packetBytes) 0
scalar MultiCell_withSecondaryGnb.router.ppp[1].ppp txPk:count 50000
scalar MultiCell_withSecondaryGnb.router.ppp[1].ppp txPk:sum(packetBytes) 3750000
scalar MultiCell_withSecondaryGnb.router.ppp[1].ppp rcvdPkFromHl:count 50000
scalar MultiCell_withSecondaryGnb.router.ppp[1].ppp rcvdPkFromHl:sum(packetBytes) 3400000
scalar MultiCell_withSecondaryGnb.router.ppp[1].ppp passedUpPk:count 0
scalar MultiCell_withSecondaryGnb.router.ppp[1].ppp passedUpPk:sum(packetBytes) 0
scalar MultiCell_withSecondaryGnb.router.ppp[1].ppp packetDropIncorrectlyReceived:count 0
scalar MultiCell_withSecondaryGnb.router.ppp[1].ppp packetDropIncorrectlyReceived:sum(packetBytes) 0
scalar MultiCell_withSecondaryGnb.router.ppp[1].ppp packetDropInterfaceDown:count 0
scalar MultiCell_withSecondaryGnb.router.ppp[1].ppp packetDropInterfaceDown:sum(packetBytes) 0
scalar MultiCell_withSecondaryGnb.router.ppp[1] packetDropInterfaceDown:count 0
scalar MultiCell_withSecondaryGnb.router.ppp[1] packetDropInterfaceDown:sum(packetBytes) 0
scalar MultiCell_withSecondaryGnb.router.ppp[1] packetDropNoCarrier:count 0
scalar MultiCell_withSecondaryGnb.router.ppp[1] packetDropNoCarrier:sum(packetBytes) 0
scalar MultiCell_withSecondaryGnb.router.ipv4.ip packetDropAddressResolutionFailed:count 0
scalar MultiCell_withSecondaryGnb.router.ipv4.ip packetDropAddressResolutionFailed:sum(packetBytes) 0
scalar MultiCell_withSecondaryGnb.router.ipv4.ip packetDropHopLimitReached:count 0
scalar MultiCell_withSecondaryGnb.router.ipv4.ip packetDropHopLimitReached:sum(packetBytes) 0
scalar MultiCell_withSecondaryGnb.router.ipv4.ip packetDropForwardingDisabled:count 0
scalar MultiCell_withSecondaryGnb.router.ipv4.ip packetDropForwardingDisabled:sum(packetBytes) 0
scalar MultiCell_withSecondaryGnb.router.ipv4.ip packetDropNoInterfaceFound:count 0
scalar MultiCell_withSecondaryGnb.router.ipv4.ip packetDropNoInterfaceFound:sum(packetBytes) 0
scalar MultiCell_withSecondaryGnb.router.ipv4.ip packetDropNoRouteFound:count 0
scalar MultiCell_withSecondaryGnb.router.ipv4.ip packetDropNoRouteFound:sum(packetBytes) 0
scalar MultiCell_withSecondaryGnb.router.ipv4.ip packetDropUndefined:count 0
scalar MultiCell_withSecondaryGnb.router.ipv4.ip packetDropUndefined:sum(packetBytes) 0
scalar MultiCell_withSecondaryGnb.router.ipv4.arp arpResolutionFailed:count 0
scalar MultiCell_withSecondaryGnb.router.ipv4.arp arpResolutionCompleted:count 0
scalar MultiCell_withSecondaryGnb.router.ipv4.arp arpResolutionInitiated:count 0
scalar MultiCell_withSecondaryGnb.router.ipv4.arp arpReplySent:count 0
scalar MultiCell_withSecondaryGnb.router.ipv4.arp arpReplySent:sum(packetBytes) 0
scalar MultiCell_withSecondaryGnb.router.ipv4.arp arpRequestSent:count 0
scalar MultiCell_withSecondaryGnb.router.ipv4.arp arpRequestSent:sum(packetBytes) 0
scalar MultiCell_withSecondaryGnb.pgw.lo[0].lo rcvdPkFromHl:count 0
scalar MultiCell_withSecondaryGnb.pgw.lo[0].lo rcvdPkFromHl:sum(packetBytes) 0
scalar MultiCell_withSecondaryGnb.pgw.lo[0].lo passedUpPk:count 0
scalar MultiCell_withSecondaryGnb.pgw.lo[0].lo passedUpPk:sum(packetBytes) 0
scalar MultiCell_withSecondaryGnb.pgw.lo[0] packetDropInterfaceDown:count 0
scalar MultiCell_withSecondaryGnb.pgw.lo[0] packetDropInterfaceDown:sum(packetBytes) 0
scalar MultiCell_withSecondaryGnb.pgw.lo[0] packetDropNoCarrier:count 0
scalar MultiCell_withSecondaryGnb.pgw.lo[0] packetDropNoCarrier:sum(packetBytes) 0
scalar MultiCell_withSecondaryGnb.pgw.ppp[0].queue queueLength:last 0
scalar MultiCell_withSecondaryGnb.pgw.ppp[0].queue queueLength:max 0
scalar MultiCell_withSecondaryGnb.pgw.ppp[0].queue queueLength:timeavg 0
scalar MultiCell_withSecondaryGnb.pgw.ppp[0].queue queueBitLength:last 0
scalar MultiCell_withSecondaryGnb.pgw.ppp[0].queue queueBitLength:max 0
scalar MultiCell_withSecondaryGnb.pgw.ppp[0].queue queueBitLength:timeavg 0
scalar MultiCell_withSecondaryGnb.pgw.ppp[0].queue outgoingPackets:count 31139
scalar MultiCell_withSecondaryGnb.pgw.ppp[0].queue outgoingPacketLengths:sum 25907648
scalar MultiCell_withSecondaryGnb.pgw.ppp[0].queue incomingPackets:count 31139
scalar MultiCell_withSecondaryGnb.pgw.ppp[0].queue incomingPacketLengths:sum 25907648
scalar MultiCell_withSecondaryGnb.pgw.ppp[0].queue droppedPacketsQueueOverflow:count 0
scalar MultiCell_withSecondaryGnb.pgw.ppp[0].queue droppedPacketLengthsQueueOverflow:sum 0
scalar MultiCell_withSecondaryGnb.pgw.ppp[0].ppp transmissionState:timeavg 5.530286399997176e-05
scalar MultiCell_withSecondaryGnb.pgw.ppp[0].ppp rxPkOk:count 0
scalar MultiCell_withSecondaryGnb.pgw.ppp[0].ppp rxPkOk:sum(packetBytes) 0
scalar MultiCell_withSecondaryGnb.pgw.ppp[0].ppp txPk:count 31139
scalar MultiCell_withSecondaryGnb.pgw.ppp[0].ppp txPk:sum(packetBytes) 3456429
scalar MultiCell_withSecondaryGnb.pgw.ppp[0].ppp rcvdPkFromHl:count 31139
scalar MultiCell_withSecondaryGnb.pgw.ppp[0].ppp rcvdPkFromHl:sum(packetBytes) 3238456
scalar MultiCell_withSecondaryGnb.pgw.ppp[0].ppp passedUpPk:count 0
scalar MultiCell_withSecondaryGnb.pgw.ppp[0].ppp passedUpPk:sum(packetBytes) 0
scalar MultiCell_withSecondaryGnb.pgw.ppp[0].ppp packetDropIncorrectlyReceived:count 0
scalar MultiCell_withSecondaryGnb.pgw.ppp[0].ppp packetDropIncorrectlyReceived:sum(packetBytes) 0
scalar MultiCell_withSecondaryGnb.pgw.ppp[0].ppp packetDropInterfaceDown:count 0
scalar MultiCell_withSecondaryGnb.pgw.ppp[0].ppp packetDropInterfaceDown:sum(packetBytes) 0
scalar MultiCell_withSecondaryGnb.pgw.ppp[0] packetDropInterfaceDown:count 0
scalar MultiCell_withSecondaryGnb.pgw.ppp[0] packetDropInterfaceDown:sum(packetBytes) 0
scalar MultiCell_withSecondaryGnb.pgw.ppp[0] packetDropNoCarrier:count 0
scalar MultiCell_withSecondaryGnb.pgw.ppp[0] packetDropNoCarrier:sum(packetBytes) 0
scalar MultiCell_withSecondaryGnb.pgw.ppp[1].queue queueLength:last 0
scalar MultiCell_withSecondaryGnb.pgw.ppp[1].queue queueLength:max 0
scalar MultiCell_withSecondaryGnb.pgw.ppp[1].queue queueLength:timeavg 0
scalar MultiCell_withSecondaryGnb.pgw.ppp[1].queue queueBitLength:last 0
scalar MultiCell_withSecondaryGnb.pgw.ppp[1].queue queueBitLength:max 0
scalar MultiCell_withSecondaryGnb.pgw.ppp[1].queue queueBitLength:timeavg 0
scalar MultiCell_withSecondaryGnb.pgw.ppp[1].queue outgoingPackets:count 18861
scalar MultiCell_withSecondaryGnb.pgw.ppp[1].queue outgoingPacketLengths:sum 15692352
scalar MultiCell_withSecondaryGnb.pgw.ppp[1].queue incomingPackets:count 18861
scalar MultiCell_withSecondaryGnb.pgw.ppp[1].queue incomingPacketLengths:sum 15692352
scalar MultiCell_withSecondaryGnb.pgw.ppp[1].queue droppedPacketsQueueOverflow:count 0
scalar MultiCell_withSecondaryGnb.pgw.ppp[1].queue droppedPacketLengthsQueueOverflow:sum 0
scalar MultiCell_withSecondaryGnb.pgw.ppp[1].ppp transmissionState:timeavg 3.34971359999905e-05
scalar MultiCell_withSecondaryGnb.pgw.ppp[1].ppp rxPkOk:count 0
scalar MultiCell_withSecondaryGnb.pgw.ppp[1].ppp rxPkOk:sum(packetBytes) 0
scalar MultiCell_withSecondaryGnb.pgw.ppp[1].ppp txPk:count 18861
scalar MultiCell_withSecondaryGnb.pgw.ppp[1].ppp txPk:sum(packetBytes) 2093571
scalar MultiCell_withSecondaryGnb.pgw.ppp[1].ppp rcvdPkFromHl:count 18861
scalar MultiCell_withSecondaryGnb.pgw.ppp[1].ppp rcvdPkFromHl:sum(packetBytes) 1961544
scalar MultiCell_withSecondaryGnb.pgw.ppp[1].ppp passedUpPk:count 0
scalar MultiCell_withSecondaryGnb.pgw.ppp[1].ppp passedUpPk:sum(packetBytes) 0
scalar MultiCell_withSecondaryGnb.pgw.ppp[1].ppp packetDropIncorrectlyReceived:count 0
scalar MultiCell_withSecondaryGnb.pgw.ppp[1].ppp packetDropIncorrectlyReceived:sum(packetBytes) 0
scalar MultiCell_withSecondaryGnb.pgw.ppp[1].ppp packetDropInterfaceDown:count 0
scalar MultiCell_withSecondaryGnb.pgw.ppp[1].ppp packetDropInterfaceDown:sum(packetBytes) 0
scalar MultiCell_withSecondaryGnb.pgw.ppp[1] packetDropInterfaceDown:count 0
scalar MultiCell_withSecondaryGnb.pgw.ppp[1] packetDropInterfaceDown:sum(packetBytes) 0
scalar MultiCell_withSecondaryGnb.pgw.ppp[1] packetDropNoCarrier:count 0
scalar MultiCell_withSecondaryGnb.pgw.ppp[1] packetDropNoCarrier:sum(packetBytes) 0
scalar MultiCell_withSecondaryGnb.pgw.ipv4.ip packetDropAddressResolutionFailed:count 0
scalar MultiCell_withSecondaryGnb.pgw.ipv4.ip packetDropAddressResolutionFailed:sum(packetBytes) 0
scalar MultiCell_withSecondaryGnb.pgw.ipv4.ip packetDropHopLimitReached:count 0
scalar MultiCell_withSecondaryGnb.pgw.ipv4.ip packetDropHopLimitReached:sum(packetBytes) 0
scalar MultiCell_withSecondaryGnb.pgw.ipv4.ip packetDropForwardingDisabled:count 0
scalar MultiCell_withSecondaryGnb.pgw.ipv4.ip packetDropForwardingDisabled:sum(packetBytes) 0
scalar MultiCell_withSecondaryGnb.pgw.ipv4.ip packetDropNoInterfaceFound:count 0
scalar MultiCell_withSecondaryGnb.pgw.ipv4.ip packetDropNoInterfaceFound:sum(packetBytes) 0
scalar MultiCell_withSecondaryGnb.pgw.ipv4.ip packetDropNoRouteFound:count 0
scalar MultiCell_withSecondaryGnb.pgw.ipv4.ip packetDropNoRouteFound:sum(packetBytes) 0
scalar MultiCell_withSecondaryGnb.pgw.ipv4.ip packetDropUndefined:count 0
scalar MultiCell_withSecondaryGnb.pgw.ipv4.ip packetDropUndefined:sum(packetBytes) 0
scalar MultiCell_withSecondaryGnb.pgw.ipv4.arp arpResolutionFailed:count 0
scalar MultiCell_withSecondaryGnb.pgw.ipv4.arp arpResolutionCompleted:count 0
scalar MultiCell_withSecondaryGnb.pgw.ipv4.arp arpResolutionInitiated:count 0
scalar MultiCell_withSecondaryGnb.pgw.ipv4.arp arpReplySent:count 0
scalar MultiCell_withSecondaryGnb.pgw.ipv4.arp arpReplySent:sum(packetBytes) 0
scalar MultiCell_withSecondaryGnb.pgw.ipv4.arp arpRequestSent:count 0
scalar MultiCell_withSecondaryGnb.pgw.ipv4.arp arpRequestSent:sum(packetBytes) 0
scalar MultiCell_withSecondaryGnb.pgw.udp packetReceived:count 0
scalar MultiCell_withSecondaryGnb.pgw.udp packetReceived:sum(packetBytes) 0
scalar MultiCell_withSecondaryGnb.pgw.udp packetSent:count 50000
scalar MultiCell_withSecondaryGnb.pgw.udp packetSent:sum(packetBytes) 4200000
scalar MultiCell_withSecondaryGnb.pgw.udp passedUpPk:count 0
scalar MultiCell_withSecondaryGnb.pgw.udp droppedPkWrongPort:count 0
scalar MultiCell_withSecondaryGnb.pgw.udp droppedPkBadChecksum:count 0
scalar MultiCell_withSecondaryGnb.pgw.dnPpp.queue queueLength:last 0
scalar MultiCell_withSecondaryGnb.pgw.dnPpp.queue queueLength:max 0
scalar MultiCell_withSecondaryGnb.pgw.dnPpp.queue queueLength:timeavg 0
scalar MultiCell_withSecondaryGnb.pgw.dnPpp.queue queueBitLength:last 0
scalar MultiCell_withSecondaryGnb.pgw.dnPpp.queue queueBitLength:max 0
scalar MultiCell_withSecondaryGnb.pgw.dnPpp.queue queueBitLength:timeavg 0
scalar MultiCell_withSecondaryGnb.pgw.dnPpp.queue outgoingPackets:count 0
scalar MultiCell_withSecondaryGnb.pgw.dnPpp.queue outgoingPacketLengths:sum 0
scalar MultiCell_withSecondaryGnb.pgw.dnPpp.queue incomingPackets:count 0
scalar MultiCell_withSecondaryGnb.pgw.dnPpp.queue incomingPacketLengths:sum 0
scalar MultiCell_withSecondaryGnb.pgw.dnPpp.queue droppedPacketsQueueOverflow:count 0
scalar MultiCell_withSecondaryGnb.pgw.dnPpp.queue droppedPacketLengthsQueueOverflow:sum 0
scalar MultiCell_withSecondaryGnb.pgw.dnPpp.ppp transmissionState:timeavg 0
scalar MultiCell_withSecondaryGnb.pgw.dnPpp.ppp rxPkOk:count 50000
scalar MultiCell_withSecondaryGnb.pgw.dnPpp.ppp rxPkOk:sum(packetBytes) 3750000
scalar MultiCell_withSecondaryGnb.pgw.dnPpp.ppp txPk:count 0
scalar MultiCell_withSecondaryGnb.pgw.dnPpp.ppp txPk:sum(packetBytes) 0
scalar MultiCell_withSecondaryGnb.pgw.dnPpp.ppp rcvdPkFromHl:count 0
scalar MultiCell_withSecondaryGnb.pgw.dnPpp.ppp rcvdPkFromHl:sum(packetBytes) 0
scalar MultiCell_withSecondaryGnb.pgw.dnPpp.ppp passedUpPk:count 50000
scalar MultiCell_withSecondaryGnb.pgw.dnPpp.ppp passedUpPk:sum(packetBytes) 3400000
scalar MultiCell_withSecondaryGnb.pgw.dnPpp.ppp packetDropIncorrectlyReceived:count 0
scalar MultiCell_withSecondaryGnb.pgw.dnPpp.ppp packetDropIncorrectlyReceived:sum(packetBytes) 0
scalar MultiCell_withSecondaryGnb.pgw.dnPpp.ppp packetDropInterfaceDown:count 0
scalar MultiCell_withSecondaryGnb.pgw.dnPpp.ppp packetDropInterfaceDown:sum(packetBytes) 0
scalar MultiCell_withSecondaryGnb.pgw.dnPpp packetDropInterfaceDown:count 0
scalar MultiCell_withSecondaryGnb.pgw.dnPpp packetDropInterfaceDown:sum(packetBytes) 0
scalar MultiCell_withSecondaryGnb.pgw.dnPpp packetDropNoCarrier:count 0
scalar MultiCell_withSecondaryGnb.pgw.dnPpp packetDropNoCarrier:sum(packetBytes) 0
scalar MultiCell_withSecondaryGnb.masterEnb1.cellularNic.rlcMux rlcCellThroughputD2D:simu5g_rateavg -nan
scalar MultiCell_withSecondaryGnb.masterEnb1.cellularNic.rlcMux rlcPduThroughputD2D:simu5g_rateavg -nan
scalar MultiCell_withSecondaryGnb.masterEnb1.cellularNic.rlcMux rlcPduDelayD2D:mean -nan
scalar MultiCell_withSecondaryGnb.masterEnb1.cellularNic.rlcMux rlcThroughputD2D:simu5g_rateavg -nan
scalar MultiCell_withSecondaryGnb.masterEnb1.cellularNic.rlcMux rlcDelayD2D:mean -nan
scalar MultiCell_withSecondaryGnb.masterEnb1.cellularNic.rlcMux rlcCellThroughputUl:simu5g_rateavg -nan
scalar MultiCell_withSecondaryGnb.masterEnb1.cellularNic.rlcMux rlcCellThroughputDl:simu5g_rateavg 68846.033646712458
scalar MultiCell_withSecondaryGnb.masterEnb1.cellularNic.rlcMux rlcPduThroughputUl:simu5g_rateavg -nan
scalar MultiCell_withSecondaryGnb.masterEnb1.cellularNic.rlcMux rlcPduThroughputDl:simu5g_rateavg -nan
scalar MultiCell_withSecondaryGnb.masterEnb1.cellularNic.rlcMux rlcPduDelayUl:mean -nan
scalar MultiCell_withSecondaryGnb.masterEnb1.cellularNic.rlcMux rlcPduDelayDl:mean -nan
scalar MultiCell_withSecondaryGnb.masterEnb1.cellularNic.rlcMux rlcThroughputUl:simu5g_rateavg -nan
scalar MultiCell_withSecondaryGnb.masterEnb1.cellularNic.rlcMux rlcThroughputDl:simu5g_rateavg -nan
scalar MultiCell_withSecondaryGnb.masterEnb1.cellularNic.rlcMux rlcDelayUl:mean -nan
scalar MultiCell_withSecondaryGnb.masterEnb1.cellularNic.rlcMux rlcDelayDl:mean -nan
scalar MultiCell_withSecondaryGnb.masterEnb1.cellularNic.rlcMux sentPacketToLowerLayer:count 32586
scalar MultiCell_withSecondaryGnb.masterEnb1.cellularNic.rlcMux sentPacketToLowerLayer:sum(packetBytes) 2282652
scalar MultiCell_withSecondaryGnb.masterEnb1.cellularNic.rlcMux receivedPacketFromLowerLayer:count 0
scalar MultiCell_withSecondaryGnb.masterEnb1.cellularNic.rlcMux receivedPacketFromLowerLayer:sum(packetBytes) 0
scalar MultiCell_withSecondaryGnb.masterEnb1.cellularNic.mac avgServedBlocksUl:mean 0
scalar MultiCell_withSecondaryGnb.masterEnb1.cellularNic.mac avgServedBlocksDl:mean 0.42137999999999998
scalar MultiCell_withSecondaryGnb.masterEnb1.cellularNic.mac macCellPacketLossD2D:mean -nan
scalar MultiCell_withSecondaryGnb.masterEnb1.cellularNic.mac macCellThroughputD2D:simu5g_rateavg -nan
scalar MultiCell_withSecondaryGnb.masterEnb1.cellularNic.mac harqTxAttemptsUl:mean -nan
scalar MultiCell_withSecondaryGnb.masterEnb1.cellularNic.mac harqTxAttemptsDl:mean -nan
scalar MultiCell_withSecondaryGnb.masterEnb1.cellularNic.mac harqErrorRate_4th_Ul:mean -nan
scalar MultiCell_withSecondaryGnb.masterEnb1.cellularNic.mac harqErrorRate_4th_Dl:mean -nan
scalar MultiCell_withSecondaryGnb.masterEnb1.cellularNic.mac harqErrorRate_3rd_Ul:mean -nan
scalar MultiCell_withSecondaryGnb.masterEnb1.cellularNic.mac harqErrorRate_3rd_Dl:mean -nan
scalar MultiCell_withSecondaryGnb.masterEnb1.cellularNic.mac harqErrorRate_2nd_Ul:mean -nan
scalar MultiCell_withSecondaryGnb.masterEnb1.cellularNic.mac harqErrorRate_2nd_Dl:mean -nan
scalar MultiCell_withSecondaryGnb.masterEnb1.cellularNic.mac harqErrorRate_1st_Ul:mean -nan
scalar MultiCell_withSecondaryGnb.masterEnb1.cellularNic.mac harqErrorRate_1st_Dl:mean -nan
scalar MultiCell_withSecondaryGnb.masterEnb1.cellularNic.mac harqErrorRateUl:mean -nan
scalar MultiCell_withSecondaryGnb.masterEnb1.cellularNic.mac harqErrorRateDl:mean -nan
scalar MultiCell_withSecondaryGnb.masterEnb1.cellularNic.mac macCellPacketLossUl:mean -nan
scalar MultiCell_withSecondaryGnb.masterEnb1.cellularNic.mac macCellPacketLossDl:mean 0.00018430914787737299
scalar MultiCell_withSecondaryGnb.masterEnb1.cellularNic.mac macPacketLossUl:mean -nan
scalar MultiCell_withSecondaryGnb.masterEnb1.cellularNic.mac macPacketLossDl:mean -nan
scalar MultiCell_withSecondaryGnb.masterEnb1.cellularNic.mac macThroughputUl:simu5g_rateavg -nan
scalar MultiCell_withSecondaryGnb.masterEnb1.cellularNic.mac macThroughputDl:simu5g_rateavg -nan
scalar MultiCell_withSecondaryGnb.masterEnb1.cellularNic.mac macDelayUl:mean -nan
scalar MultiCell_withSecondaryGnb.masterEnb1.cellularNic.mac macDelayDl:mean -nan
scalar MultiCell_withSecondaryGnb.masterEnb1.cellularNic.mac macCellThroughputUl:simu5g_rateavg -nan
scalar MultiCell_withSecondaryGnb.masterEnb1.cellularNic.mac macCellThroughputDl:simu5g_rateavg 72823.920300256083
scalar MultiCell_withSecondaryGnb.masterEnb1.cellularNic.mac sentPacketToLowerLayer:count 18658
scalar MultiCell_withSecondaryGnb.masterEnb1.cellularNic.mac sentPacketToLowerLayer:sum(packetBytes) 1363842
scalar MultiCell_withSecondaryGnb.masterEnb1.cellularNic.mac sentPacketToUpperLayer:count 16281
scalar MultiCell_withSecondaryGnb.masterEnb1.cellularNic.mac sentPacketToUpperLayer:sum(packetBytes) 16281
scalar MultiCell_withSecondaryGnb.masterEnb1.cellularNic.mac receivedPacketFromLowerLayer:count 44608
scalar MultiCell_withSecondaryGnb.masterEnb1.cellularNic.mac receivedPacketFromLowerLayer:sum(packetBytes) 44608
scalar MultiCell_withSecondaryGnb.masterEnb1.cellularNic.mac receivedPacketFromUpperLayer:count 32586
scalar MultiCell_withSecondaryGnb.masterEnb1.cellularNic.mac receivedPacketFromUpperLayer:sum(packetBytes) 2282652
scalar MultiCell_withSecondaryGnb.masterEnb1.cellularNic.mac macBufferOverFlowD2D:mean -nan
scalar MultiCell_withSecondaryGnb.masterEnb1.cellularNic.mac macBufferOverFlowUl:mean -nan
scalar MultiCell_withSecondaryGnb.masterEnb1.cellularNic.mac macBufferOverFlowDl:mean -nan
scalar MultiCell_withSecondaryGnb.masterEnb1.cellularNic.channelModel[0] measuredSinrUl:mean -nan
scalar MultiCell_withSecondaryGnb.masterEnb1.cellularNic.channelModel[0] measuredSinrDl:mean -nan
scalar MultiCell_withSecondaryGnb.masterEnb1.cellularNic.channelModel[0] rcvdSinrD2D:mean -nan
scalar MultiCell_withSecondaryGnb.masterEnb1.cellularNic.channelModel[0] rcvdSinrUl:mean -nan
scalar MultiCell_withSecondaryGnb.masterEnb1.cellularNic.channelModel[0] rcvdSinrDl:mean -nan
scalar MultiCell_withSecondaryGnb.masterEnb1.cellularNic packetDropInterfaceDown:count 0
scalar MultiCell_withSecondaryGnb.masterEnb1.cellularNic packetDropInterfaceDown:sum(packetBytes) 0
scalar MultiCell_withSecondaryGnb.masterEnb1.cellularNic packetDropNoCarrier:count 0
scalar MultiCell_withSecondaryGnb.masterEnb1.cellularNic packetDropNoCarrier:sum(packetBytes) 0
scalar MultiCell_withSecondaryGnb.masterEnb1.pppIf.queue queueLength:last 0
scalar MultiCell_withSecondaryGnb.masterEnb1.pppIf.queue queueLength:max 0
scalar MultiCell_withSecondaryGnb.masterEnb1.pppIf.queue queueLength:timeavg 0
scalar MultiCell_withSecondaryGnb.masterEnb1.pppIf.queue queueBitLength:last 0
scalar MultiCell_withSecondaryGnb.masterEnb1.pppIf.queue queueBitLength:max 0
scalar MultiCell_withSecondaryGnb.masterEnb1.pppIf.queue queueBitLength:timeavg 0
scalar MultiCell_withSecondaryGnb.masterEnb1.pppIf.queue outgoingPackets:count 0
scalar MultiCell_withSecondaryGnb.masterEnb1.pppIf.queue outgoingPacketLengths:sum 0
scalar MultiCell_withSecondaryGnb.masterEnb1.pppIf.queue incomingPackets:count 0
scalar MultiCell_withSecondaryGnb.masterEnb1.pppIf.queue incomingPacketLengths:sum 0
scalar MultiCell_withSecondaryGnb.masterEnb1.pppIf.queue droppedPacketsQueueOverflow:count 0
scalar MultiCell_withSecondaryGnb.masterEnb1.pppIf.queue droppedPacketLengthsQueueOverflow:sum 0
scalar MultiCell_withSecondaryGnb.masterEnb1.pppIf.ppp transmissionState:timeavg 0
scalar MultiCell_withSecondaryGnb.masterEnb1.pppIf.ppp rxPkOk:count 31139
scalar MultiCell_withSecondaryGnb.masterEnb1.pppIf.ppp rxPkOk:sum(packetBytes) 3456429
scalar MultiCell_withSecondaryGnb.masterEnb1.pppIf.ppp txPk:count 0
scalar MultiCell_withSecondaryGnb.masterEnb1.pppIf.ppp txPk:sum(packetBytes) 0
scalar MultiCell_withSecondaryGnb.masterEnb1.pppIf.ppp rcvdPkFromHl:count 0
scalar MultiCell_withSecondaryGnb.masterEnb1.pppIf.ppp rcvdPkFromHl:sum(packetBytes) 0
scalar MultiCell_withSecondaryGnb.masterEnb1.pppIf.ppp passedUpPk:count 31139
scalar MultiCell_withSecondaryGnb.masterEnb1.pppIf.ppp passedUpPk:sum(packetBytes) 3238456
scalar MultiCell_withSecondaryGnb.masterEnb1.pppIf.ppp packetDropIncorrectlyReceived:count 0
scalar MultiCell_withSecondaryGnb.masterEnb1.pppIf.ppp packetDropIncorrectlyReceived:sum(packetBytes) 0
scalar MultiCell_withSecondaryGnb.masterEnb1.pppIf.ppp packetDropInterfaceDown:count 0
scalar MultiCell_withSecondaryGnb.masterEnb1.pppIf.ppp packetDropInterfaceDown:sum(packetBytes) 0
scalar MultiCell_withSecondaryGnb.masterEnb1.pppIf packetDropInterfaceDown:count 0
scalar MultiCell_withSecondaryGnb.masterEnb1.pppIf packetDropInterfaceDown:sum(packetBytes) 0
scalar MultiCell_withSecondaryGnb.masterEnb1.pppIf packetDropNoCarrier:count 0
scalar MultiCell_withSecondaryGnb.masterEnb1.pppIf packetDropNoCarrier:sum(packetBytes) 0
scalar MultiCell_withSecondaryGnb.masterEnb1.x2ppp[0].queue queueLength:last 0
scalar MultiCell_withSecondaryGnb.masterEnb1.x2ppp[0].queue queueLength:max 0
scalar MultiCell_withSecondaryGnb.masterEnb1.x2ppp[0].queue queueLength:timeavg 0
scalar MultiCell_withSecondaryGnb.masterEnb1.x2ppp[0].queue queueBitLength:last 0
scalar MultiCell_withSecondaryGnb.masterEnb1.x2ppp[0].queue queueBitLength:max 0
scalar MultiCell_withSecondaryGnb.masterEnb1.x2ppp[0].queue queueBitLength:timeavg 0
scalar MultiCell_withSecondaryGnb.masterEnb1.x2ppp[0].queue outgoingPackets:count 14809
scalar MultiCell_withSecondaryGnb.masterEnb1.x2ppp[0].queue outgoingPacketLengths:sum 13742496
scalar MultiCell_withSecondaryGnb.masterEnb1.x2ppp[0].queue incomingPackets:count 14809
scalar MultiCell_withSecondaryGnb.masterEnb1.x2ppp[0].queue incomingPacketLengths:sum 13742496
scalar MultiCell_withSecondaryGnb.masterEnb1.x2ppp[0].queue droppedPacketsQueueOverflow:count 0
scalar MultiCell_withSecondaryGnb.masterEnb1.x2ppp[0].queue droppedPacketLengthsQueueOverflow:sum 0
scalar MultiCell_withSecondaryGnb.masterEnb1.x2ppp[0].ppp transmissionState:timeavg 2.914359999999977e-05
scalar MultiCell_withSecondaryGnb.masterEnb1.x2ppp[0].ppp rxPkOk:count 4
scalar MultiCell_withSecondaryGnb.masterEnb1.x2ppp[0].ppp rxPkOk:sum(packetBytes) 444
scalar MultiCell_withSecondaryGnb.masterEnb1.x2ppp[0].ppp txPk:count 14809
scalar MultiCell_withSecondaryGnb.masterEnb1.x2ppp[0].ppp txPk:sum(packetBytes) 1821475
scalar MultiCell_withSecondaryGnb.masterEnb1.x2ppp[0].ppp rcvdPkFromHl:count 14809
scalar MultiCell_withSecondaryGnb.masterEnb1.x2ppp[0].ppp rcvdPkFromHl:sum(packetBytes) 1717812
scalar MultiCell_withSecondaryGnb.masterEnb1.x2ppp[0].ppp passedUpPk:count 4
scalar MultiCell_withSecondaryGnb.masterEnb1.x2ppp[0].ppp passedUpPk:sum(packetBytes) 416
scalar MultiCell_withSecondaryGnb.masterEnb1.x2ppp[0].ppp packetDropIncorrectlyReceived:count 0
scalar MultiCell_withSecondaryGnb.masterEnb1.x2ppp[0].ppp packetDropIncorrectlyReceived:sum(packetBytes) 0
scalar MultiCell_withSecondaryGnb.masterEnb1.x2ppp[0].ppp packetDropInterfaceDown:count 0
scalar MultiCell_withSecondaryGnb.masterEnb1.x2ppp[0].ppp packetDropInterfaceDown:sum(packetBytes) 0
scalar MultiCell_withSecondaryGnb.masterEnb1.x2ppp[0] packetDropInterfaceDown:count 0
scalar MultiCell_withSecondaryGnb.masterEnb1.x2ppp[0] packetDropInterfaceDown:sum(packetBytes) 0
scalar MultiCell_withSecondaryGnb.masterEnb1.x2ppp[0] packetDropNoCarrier:count 0
scalar MultiCell_withSecondaryGnb.masterEnb1.x2ppp[0] packetDropNoCarrier:sum(packetBytes) 0
scalar MultiCell_withSecondaryGnb.masterEnb1.x2ppp[1].queue queueLength:last 0
scalar MultiCell_withSecondaryGnb.masterEnb1.x2ppp[1].queue queueLength:max 2
scalar MultiCell_withSecondaryGnb.masterEnb1.x2ppp[1].queue queueLength:timeavg 5.6800000000000002e-09
scalar MultiCell_withSecondaryGnb.masterEnb1.x2ppp[1].queue queueBitLength:last 0
scalar MultiCell_withSecondaryGnb.masterEnb1.x2ppp[1].queue queueBitLength:max 1024
scalar MultiCell_withSecondaryGnb.masterEnb1.x2ppp[1].queue queueBitLength:timeavg 2.9081600000000001e-06
scalar MultiCell_withSecondaryGnb.masterEnb1.x2ppp[1].queue outgoingPackets:count 150
scalar MultiCell_withSecondaryGnb.masterEnb1.x2ppp[1].queue outgoingPacketLengths:sum 111728
scalar MultiCell_withSecondaryGnb.masterEnb1.x2ppp[1].queue incomingPackets:count 150
scalar MultiCell_withSecondaryGnb.masterEnb1.x2ppp[1].queue incomingPacketLengths:sum 111728
scalar MultiCell_withSecondaryGnb.masterEnb1.x2ppp[1].queue droppedPacketsQueueOverflow:count 0
scalar MultiCell_withSecondaryGnb.masterEnb1.x2ppp[1].queue droppedPacketLengthsQueueOverflow:sum 0
scalar MultiCell_withSecondaryGnb.masterEnb1.x2ppp[1].ppp transmissionState:timeavg 2.40256e-07
scalar MultiCell_withSecondaryGnb.masterEnb1.x2ppp[1].ppp rxPkOk:count 121
scalar MultiCell_withSecondaryGnb.masterEnb1.x2ppp[1].ppp rxPkOk:sum(packetBytes) 11478
scalar MultiCell_withSecondaryGnb.masterEnb1.x2ppp[1].ppp txPk:count 150
scalar MultiCell_withSecondaryGnb.masterEnb1.x2ppp[1].ppp txPk:sum(packetBytes) 15016
scalar MultiCell_withSecondaryGnb.masterEnb1.x2ppp[1].ppp rcvdPkFromHl:count 150
scalar MultiCell_withSecondaryGnb.masterEnb1.x2ppp[1].ppp rcvdPkFromHl:sum(packetBytes) 13966
scalar MultiCell_withSecondaryGnb.masterEnb1.x2ppp[1].ppp passedUpPk:count 121
scalar MultiCell_withSecondaryGnb.masterEnb1.x2ppp[1].ppp passedUpPk:sum(packetBytes) 10631
scalar MultiCell_withSecondaryGnb.masterEnb1.x2ppp[1].ppp packetDropIncorrectlyReceived:count 0
scalar MultiCell_withSecondaryGnb.masterEnb1.x2ppp[1].ppp packetDropIncorrectlyReceived:sum(packetBytes) 0
scalar MultiCell_withSecondaryGnb.masterEnb1.x2ppp[1].ppp packetDropInterfaceDown:count 0
scalar MultiCell_withSecondaryGnb.masterEnb1.x2ppp[1].ppp packetDropInterfaceDown:sum(packetBytes) 0
scalar MultiCell_withSecondaryGnb.masterEnb1.x2ppp[1] packetDropInterfaceDown:count 0
scalar MultiCell_withSecondaryGnb.masterEnb1.x2ppp[1] packetDropInterfaceDown:sum(packetBytes) 0
scalar MultiCell_withSecondaryGnb.masterEnb1.x2ppp[1] packetDropNoCarrier:count 0
scalar MultiCell_withSecondaryGnb.masterEnb1.x2ppp[1] packetDropNoCarrier:sum(packetBytes) 0
scalar MultiCell_withSecondaryGnb.masterEnb1.pppMEHostIf.queue queueLength:last 0
scalar MultiCell_withSecondaryGnb.masterEnb1.pppMEHostIf.queue queueLength:max 0
scalar MultiCell_withSecondaryGnb.masterEnb1.pppMEHostIf.queue queueLength:timeavg 0
scalar MultiCell_withSecondaryGnb.masterEnb1.pppMEHostIf.queue queueBitLength:last 0
scalar MultiCell_withSecondaryGnb.masterEnb1.pppMEHostIf.queue queueBitLength:max 0
scalar MultiCell_withSecondaryGnb.masterEnb1.pppMEHostIf.queue queueBitLength:timeavg 0
scalar MultiCell_withSecondaryGnb.masterEnb1.pppMEHostIf.queue outgoingPackets:count 0
scalar MultiCell_withSecondaryGnb.masterEnb1.pppMEHostIf.queue outgoingPacketLengths:sum 0
scalar MultiCell_withSecondaryGnb.masterEnb1.pppMEHostIf.queue incomingPackets:count 0
scalar MultiCell_withSecondaryGnb.masterEnb1.pppMEHostIf.queue incomingPacketLengths:sum 0
scalar MultiCell_withSecondaryGnb.masterEnb1.pppMEHostIf.queue droppedPacketsQueueOverflow:count 0
scalar MultiCell_withSecondaryGnb.masterEnb1.pppMEHostIf.queue droppedPacketLengthsQueueOverflow:sum 0
scalar MultiCell_withSecondaryGnb.masterEnb1.pppMEHostIf.ppp transmissionState:timeavg 0
scalar MultiCell_withSecondaryGnb.masterEnb1.pppMEHostIf.ppp rxPkOk:count 0
scalar MultiCell_withSecondaryGnb.masterEnb1.pppMEHostIf.ppp rxPkOk:sum(packetBytes) 0
scalar MultiCell_withSecondaryGnb.masterEnb1.pppMEHostIf.ppp txPk:count 0
scalar MultiCell_withSecondaryGnb.masterEnb1.pppMEHostIf.ppp txPk:sum(packetBytes) 0
scalar MultiCell_withSecondaryGnb.masterEnb1.pppMEHostIf.ppp rcvdPkFromHl:count 0
scalar MultiCell_withSecondaryGnb.masterEnb1.pppMEHostIf.ppp rcvdPkFromHl:sum(packetBytes) 0
scalar MultiCell_withSecondaryGnb.masterEnb1.pppMEHostIf.ppp passedUpPk:count 0
scalar MultiCell_withSecondaryGnb.masterEnb1.pppMEHostIf.ppp passedUpPk:sum(packetBytes) 0
scalar MultiCell_withSecondaryGnb.masterEnb1.pppMEHostIf.ppp packetDropIncorrectlyReceived:count 0
scalar MultiCell_withSecondaryGnb.masterEnb1.pppMEHostIf.ppp packetDropIncorrectlyReceived:sum(packetBytes) 0
scalar MultiCell_withSecondaryGnb.masterEnb1.pppMEHostIf.ppp packetDropInterfaceDown:count 0
scalar MultiCell_withSecondaryGnb.masterEnb1.pppMEHostIf.ppp packetDropInterfaceDown:sum(packetBytes) 0
scalar MultiCell_withSecondaryGnb.masterEnb1.pppMEHostIf packetDropInterfaceDown:count 0
scalar MultiCell_withSecondaryGnb.masterEnb1.pppMEHostIf packetDropInterfaceDown:sum(packetBytes) 0
scalar MultiCell_withSecondaryGnb.masterEnb1.pppMEHostIf packetDropNoCarrier:count 0
scalar MultiCell_withSecondaryGnb.masterEnb1.pppMEHostIf packetDropNoCarrier:sum(packetBytes) 0
scalar MultiCell_withSecondaryGnb.masterEnb1.ipv4.ip packetDropAddressResolutionFailed:count 0
scalar MultiCell_withSecondaryGnb.masterEnb1.ipv4.ip packetDropAddressResolutionFailed:sum(packetBytes) 0
scalar MultiCell_withSecondaryGnb.masterEnb1.ipv4.ip packetDropHopLimitReached:count 0
scalar MultiCell_withSecondaryGnb.masterEnb1.ipv4.ip packetDropHopLimitReached:sum(packetBytes) 0
scalar MultiCell_withSecondaryGnb.masterEnb1.ipv4.ip packetDropForwardingDisabled:count 0
scalar MultiCell_withSecondaryGnb.masterEnb1.ipv4.ip packetDropForwardingDisabled:sum(packetBytes) 0
scalar MultiCell_withSecondaryGnb.masterEnb1.ipv4.ip packetDropNoInterfaceFound:count 0
scalar MultiCell_withSecondaryGnb.masterEnb1.ipv4.ip packetDropNoInterfaceFound:sum(packetBytes) 0
scalar MultiCell_withSecondaryGnb.masterEnb1.ipv4.ip packetDropNoRouteFound:count 0
scalar MultiCell_withSecondaryGnb.masterEnb1.ipv4.ip packetDropNoRouteFound:sum(packetBytes) 0
scalar MultiCell_withSecondaryGnb.masterEnb1.ipv4.ip packetDropUndefined:count 0
scalar MultiCell_withSecondaryGnb.masterEnb1.ipv4.ip packetDropUndefined:sum(packetBytes) 0
scalar MultiCell_withSecondaryGnb.masterEnb1.ipv4.arp arpResolutionFailed:count 0
scalar MultiCell_withSecondaryGnb.masterEnb1.ipv4.arp arpResolutionCompleted:count 0
scalar MultiCell_withSecondaryGnb.masterEnb1.ipv4.arp arpResolutionInitiated:count 0
scalar MultiCell_withSecondaryGnb.masterEnb1.ipv4.arp arpReplySent:count 0
scalar MultiCell_withSecondaryGnb.masterEnb1.ipv4.arp arpReplySent:sum(packetBytes) 0
scalar MultiCell_withSecondaryGnb.masterEnb1.ipv4.arp arpRequestSent:count 0
scalar MultiCell_withSecondaryGnb.masterEnb1.ipv4.arp arpRequestSent:sum(packetBytes) 0
scalar MultiCell_withSecondaryGnb.masterEnb1.udp packetReceived:count 31200
scalar MultiCell_withSecondaryGnb.masterEnb1.udp packetReceived:sum(packetBytes) 2621471
scalar MultiCell_withSecondaryGnb.masterEnb1.udp packetSent:count 14895
scalar MultiCell_withSecondaryGnb.masterEnb1.udp packetSent:sum(packetBytes) 1429830
scalar MultiCell_withSecondaryGnb.masterEnb1.udp passedUpPk:count 31200
scalar MultiCell_withSecondaryGnb.masterEnb1.udp droppedPkWrongPort:count 0
scalar MultiCell_withSecondaryGnb.masterEnb1.udp droppedPkBadChecksum:count 0
scalar MultiCell_withSecondaryGnb.masterEnb1.x2App[0].client packetReceived:count 0
scalar MultiCell_withSecondaryGnb.masterEnb1.x2App[0].client packetReceived:sum(packetBytes) 0
scalar MultiCell_withSecondaryGnb.masterEnb1.x2App[0].client packetSent:count 0
scalar MultiCell_withSecondaryGnb.masterEnb1.x2App[0].client packetSent:sum(packetBytes) 0
scalar MultiCell_withSecondaryGnb.masterEnb1.x2App[0].client echoedPk:count 0
scalar MultiCell_withSecondaryGnb.masterEnb1.x2App[0].client echoedPk:sum(packetBytes) 0
scalar MultiCell_withSecondaryGnb.masterEnb1.x2App[0].server "bytes rcvd" 0
scalar MultiCell_withSecondaryGnb.masterEnb1.x2App[0].server throughput -nan
scalar MultiCell_withSecondaryGnb.masterEnb1.x2App[1].client packetReceived:count 31
scalar MultiCell_withSecondaryGnb.masterEnb1.x2App[1].client packetReceived:sum(packetBytes) 465
scalar MultiCell_withSecondaryGnb.masterEnb1.x2App[1].client packetSent:count 0
scalar MultiCell_withSecondaryGnb.masterEnb1.x2App[1].client packetSent:sum(packetBytes) 0
scalar MultiCell_withSecondaryGnb.masterEnb1.x2App[1].client echoedPk:count 0
scalar MultiCell_withSecondaryGnb.masterEnb1.x2App[1].client echoedPk:sum(packetBytes) 0
scalar MultiCell_withSecondaryGnb.masterEnb1.x2App[1].server "bytes rcvd" 0
scalar MultiCell_withSecondaryGnb.masterEnb1.x2App[1].server throughput -nan
scalar MultiCell_withSecondaryGnb.secondaryGnb1.cellularNic.rlcMux rlcCellThroughputD2D:simu5g_rateavg -nan
scalar MultiCell_withSecondaryGnb.secondaryGnb1.cellularNic.rlcMux rlcPduThroughputD2D:simu5g_rateavg -nan
scalar MultiCell_withSecondaryGnb.secondaryGnb1.cellularNic.rlcMux rlcPduDelayD2D:mean -nan
scalar MultiCell_withSecondaryGnb.secondaryGnb1.cellularNic.rlcMux rlcThroughputD2D:simu5g_rateavg -nan
scalar MultiCell_withSecondaryGnb.secondaryGnb1.cellularNic.rlcMux rlcDelayD2D:mean -nan
scalar MultiCell_withSecondaryGnb.secondaryGnb1.cellularNic.rlcMux rlcCellThroughputUl:simu5g_rateavg -nan
scalar MultiCell_withSecondaryGnb.secondaryGnb1.cellularNic.rlcMux rlcCellThroughputDl:simu5g_rateavg 68838.046751415764
scalar MultiCell_withSecondaryGnb.secondaryGnb1.cellularNic.rlcMux rlcPduThroughputUl:simu5g_rateavg -nan
scalar MultiCell_withSecondaryGnb.secondaryGnb1.cellularNic.rlcMux rlcPduThroughputDl:simu5g_rateavg -nan
scalar MultiCell_withSecondaryGnb.secondaryGnb1.cellularNic.rlcMux rlcPduDelayUl:mean -nan
scalar MultiCell_withSecondaryGnb.secondaryGnb1.cellularNic.rlcMux rlcPduDelayDl:mean -nan
scalar MultiCell_withSecondaryGnb.secondaryGnb1.cellularNic.rlcMux rlcThroughputUl:simu5g_rateavg -nan
scalar MultiCell_withSecondaryGnb.secondaryGnb1.cellularNic.rlcMux rlcThroughputDl:simu5g_rateavg -nan
scalar MultiCell_withSecondaryGnb.secondaryGnb1.cellularNic.rlcMux rlcDelayUl:mean -nan
scalar MultiCell_withSecondaryGnb.secondaryGnb1.cellularNic.rlcMux rlcDelayDl:mean -nan
scalar MultiCell_withSecondaryGnb.secondaryGnb1.cellularNic.rlcMux sentPacketToLowerLayer:count 29610
scalar MultiCell_withSecondaryGnb.secondaryGnb1.cellularNic.rlcMux sentPacketToLowerLayer:sum(packetBytes) 2072700
scalar MultiCell_withSecondaryGnb.secondaryGnb1.cellularNic.rlcMux receivedPacketFromLowerLayer:count 0
scalar MultiCell_withSecondaryGnb.secondaryGnb1.cellularNic.rlcMux receivedPacketFromLowerLayer:sum(packetBytes) 0
scalar MultiCell_withSecondaryGnb.secondaryGnb1.cellularNic.mac avgServedBlocksUl:mean 0
scalar MultiCell_withSecondaryGnb.secondaryGnb1.cellularNic.mac avgServedBlocksDl:mean 0.35004000000000002
scalar MultiCell_withSecondaryGnb.secondaryGnb1.cellularNic.mac macCellPacketLossD2D:mean -nan
scalar MultiCell_withSecondaryGnb.secondaryGnb1.cellularNic.mac macCellThroughputD2D:simu5g_rateavg -nan
scalar MultiCell_withSecondaryGnb.secondaryGnb1.cellularNic.mac harqTxAttemptsUl:mean -nan
scalar MultiCell_withSecondaryGnb.secondaryGnb1.cellularNic.mac harqTxAttemptsDl:mean -nan
scalar MultiCell_withSecondaryGnb.secondaryGnb1.cellularNic.mac harqErrorRate_4th_Ul:mean -nan
scalar MultiCell_withSecondaryGnb.secondaryGnb1.cellularNic.mac harqErrorRate_4th_Dl:mean -nan
scalar MultiCell_withSecondaryGnb.secondaryGnb1.cellularNic.mac harqErrorRate_3rd_Ul:mean -nan
scalar MultiCell_withSecondaryGnb.secondaryGnb1.cellularNic.mac harqErrorRate_3rd_Dl:mean -nan
scalar MultiCell_withSecondaryGnb.secondaryGnb1.cellularNic.mac harqErrorRate_2nd_Ul:mean -nan
scalar MultiCell_withSecondaryGnb.secondaryGnb1.cellularNic.mac harqErrorRate_2nd_Dl:mean -nan
scalar MultiCell_withSecondaryGnb.secondaryGnb1.cellularNic.mac harqErrorRate_1st_Ul:mean -nan
scalar MultiCell_withSecondaryGnb.secondaryGnb1.cellularNic.mac harqErrorRate_1st_Dl:mean -nan
scalar MultiCell_withSecondaryGnb.secondaryGnb1.cellularNic.mac harqErrorRateUl:mean -nan
scalar MultiCell_withSecondaryGnb.secondaryGnb1.cellularNic.mac harqErrorRateDl:mean -nan
scalar MultiCell_withSecondaryGnb.secondaryGnb1.cellularNic.mac macCellPacketLossUl:mean -nan
scalar MultiCell_withSecondaryGnb.secondaryGnb1.cellularNic.mac macCellPacketLossDl:mean 0
scalar MultiCell_withSecondaryGnb.secondaryGnb1.cellularNic.mac macPacketLossUl:mean -nan
scalar MultiCell_withSecondaryGnb.secondaryGnb1.cellularNic.mac macPacketLossDl:mean -nan
scalar MultiCell_withSecondaryGnb.secondaryGnb1.cellularNic.mac macThroughputUl:simu5g_rateavg -nan
scalar MultiCell_withSecondaryGnb.secondaryGnb1.cellularNic.mac macThroughputDl:simu5g_rateavg -nan
scalar MultiCell_withSecondaryGnb.secondaryGnb1.cellularNic.mac macDelayUl:mean -nan
scalar MultiCell_withSecondaryGnb.secondaryGnb1.cellularNic.mac macDelayDl:mean -nan
scalar MultiCell_withSecondaryGnb.secondaryGnb1.cellularNic.mac macCellThroughputUl:simu5g_rateavg -nan
scalar MultiCell_withSecondaryGnb.secondaryGnb1.cellularNic.mac macCellThroughputDl:simu5g_rateavg 72815.465955088905
scalar MultiCell_withSecondaryGnb.secondaryGnb1.cellularNic.mac sentPacketToLowerLayer:count 17399
scalar MultiCell_withSecondaryGnb.secondaryGnb1.cellularNic.mac sentPacketToLowerLayer:sum(packetBytes) 1270127
scalar MultiCell_withSecondaryGnb.secondaryGnb1.cellularNic.mac sentPacketToUpperLayer:count 14805
scalar MultiCell_withSecondaryGnb.secondaryGnb1.cellularNic.mac sentPacketToUpperLayer:sum(packetBytes) 14805
scalar MultiCell_withSecondaryGnb.secondaryGnb1.cellularNic.mac receivedPacketFromLowerLayer:count 42077
scalar MultiCell_withSecondaryGnb.secondaryGnb1.cellularNic.mac receivedPacketFromLowerLayer:sum(packetBytes) 42077
scalar MultiCell_withSecondaryGnb.secondaryGnb1.cellularNic.mac receivedPacketFromUpperLayer:count 29610
scalar MultiCell_withSecondaryGnb.secondaryGnb1.cellularNic.mac receivedPacketFromUpperLayer:sum(packetBytes) 2072700
scalar MultiCell_withSecondaryGnb.secondaryGnb1.cellularNic.mac macBufferOverFlowD2D:mean -nan
scalar MultiCell_withSecondaryGnb.secondaryGnb1.cellularNic.mac macBufferOverFlowUl:mean -nan
scalar MultiCell_withSecondaryGnb.secondaryGnb1.cellularNic.mac macBufferOverFlowDl:mean -nan
scalar MultiCell_withSecondaryGnb.secondaryGnb1.cellularNic.channelModel[0] measuredSinrUl:mean -nan
scalar MultiCell_withSecondaryGnb.secondaryGnb1.cellularNic.channelModel[0] measuredSinrDl:mean -nan
scalar MultiCell_withSecondaryGnb.secondaryGnb1.cellularNic.channelModel[0] rcvdSinrD2D:mean -nan
scalar MultiCell_withSecondaryGnb.secondaryGnb1.cellularNic.channelModel[0] rcvdSinrUl:mean -nan
scalar MultiCell_withSecondaryGnb.secondaryGnb1.cellularNic.channelModel[0] rcvdSinrDl:mean -nan
scalar MultiCell_withSecondaryGnb.secondaryGnb1.cellularNic packetDropInterfaceDown:count 0
scalar MultiCell_withSecondaryGnb.secondaryGnb1.cellularNic packetDropInterfaceDown:sum(packetBytes) 0
scalar MultiCell_withSecondaryGnb.secondaryGnb1.cellularNic packetDropNoCarrier:count 0
scalar MultiCell_withSecondaryGnb.secondaryGnb1.cellularNic packetDropNoCarrier:sum(packetBytes) 0
scalar MultiCell_withSecondaryGnb.secondaryGnb1.pppIf.queue queueLength:last 0
scalar MultiCell_withSecondaryGnb.secondaryGnb1.pppIf.queue queueLength:max 0
scalar MultiCell_withSecondaryGnb.secondaryGnb1.pppIf.queue queueLength:timeavg 0
scalar MultiCell_withSecondaryGnb.secondaryGnb1.pppIf.queue queueBitLength:last 0
scalar MultiCell_withSecondaryGnb.secondaryGnb1.pppIf.queue queueBitLength:max 0
scalar MultiCell_withSecondaryGnb.secondaryGnb1.pppIf.queue queueBitLength:timeavg 0
scalar MultiCell_withSecondaryGnb.secondaryGnb1.pppIf.queue outgoingPackets:count 0
scalar MultiCell_withSecondaryGnb.secondaryGnb1.pppIf.queue outgoingPacketLengths:sum 0
scalar MultiCell_withSecondaryGnb.secondaryGnb1.pppIf.queue incomingPackets:count 0
scalar MultiCell_withSecondaryGnb.secondaryGnb1.pppIf.queue incomingPacketLengths:sum 0
scalar MultiCell_withSecondaryGnb.secondaryGnb1.pppIf.queue droppedPacketsQueueOverflow:count 0
scalar MultiCell_withSecondaryGnb.secondaryGnb1.pppIf.queue droppedPacketLengthsQueueOverflow:sum 0
scalar MultiCell_withSecondaryGnb.secondaryGnb1.pppIf.ppp transmissionState:timeavg 0
scalar MultiCell_withSecondaryGnb.secondaryGnb1.pppIf.ppp rxPkOk:count 0
scalar MultiCell_withSecondaryGnb.secondaryGnb1.pppIf.ppp rxPkOk:sum(packetBytes) 0
scalar MultiCell_withSecondaryGnb.secondaryGnb1.pppIf.ppp txPk:count 0
scalar MultiCell_withSecondaryGnb.secondaryGnb1.pppIf.ppp txPk:sum(packetBytes) 0
scalar MultiCell_withSecondaryGnb.secondaryGnb1.pppIf.ppp rcvdPkFromHl:count 0
scalar MultiCell_withSecondaryGnb.secondaryGnb1.pppIf.ppp rcvdPkFromHl:sum(packetBytes) 0
scalar MultiCell_withSecondaryGnb.secondaryGnb1.pppIf.ppp passedUpPk:count 0
scalar MultiCell_withSecondaryGnb.secondaryGnb1.pppIf.ppp passedUpPk:sum(packetBytes) 0
scalar MultiCell_withSecondaryGnb.secondaryGnb1.pppIf.ppp packetDropIncorrectlyReceived:count 0
scalar MultiCell_withSecondaryGnb.secondaryGnb1.pppIf.ppp packetDropIncorrectlyReceived:sum(packetBytes) 0
scalar MultiCell_withSecondaryGnb.secondaryGnb1.pppIf.ppp packetDropInterfaceDown:count 0
scalar MultiCell_withSecondaryGnb.secondaryGnb1.pppIf.ppp packetDropInterfaceDown:sum(packetBytes) 0
scalar MultiCell_withSecondaryGnb.secondaryGnb1.pppIf packetDropInterfaceDown:count 0
scalar MultiCell_withSecondaryGnb.secondaryGnb1.pppIf packetDropInterfaceDown:sum(packetBytes) 0
scalar MultiCell_withSecondaryGnb.secondaryGnb1.pppIf packetDropNoCarrier:count 0
scalar MultiCell_withSecondaryGnb.secondaryGnb1.pppIf packetDropNoCarrier:sum(packetBytes) 0
scalar MultiCell_withSecondaryGnb.secondaryGnb1.x2ppp[0].queue queueLength:last 0
scalar MultiCell_withSecondaryGnb.secondaryGnb1.x2ppp[0].queue queueLength:max 0
scalar MultiCell_withSecondaryGnb.secondaryGnb1.x2ppp[0].queue queueLength:timeavg 0
scalar MultiCell_withSecondaryGnb.secondaryGnb1.x2ppp[0].queue queueBitLength:last 0
scalar MultiCell_withSecondaryGnb.secondaryGnb1.x2ppp[0].queue queueBitLength:max 0
scalar MultiCell_withSecondaryGnb.secondaryGnb1.x2ppp[0].queue queueBitLength:timeavg 0
scalar MultiCell_withSecondaryGnb.secondaryGnb1.x2ppp[0].queue outgoingPackets:count 4
scalar MultiCell_withSecondaryGnb.secondaryGnb1.x2ppp[0].queue outgoingPacketLengths:sum 3328
scalar MultiCell_withSecondaryGnb.secondaryGnb1.x2ppp[0].queue incomingPackets:count 4
scalar MultiCell_withSecondaryGnb.secondaryGnb1.x2ppp[0].queue incomingPacketLengths:sum 3328
scalar MultiCell_withSecondaryGnb.secondaryGnb1.x2ppp[0].queue droppedPacketsQueueOverflow:count 0
scalar MultiCell_withSecondaryGnb.secondaryGnb1.x2ppp[0].queue droppedPacketLengthsQueueOverflow:sum 0
scalar MultiCell_withSecondaryGnb.secondaryGnb1.x2ppp[0].ppp transmissionState:timeavg 7.1039999999999986e-09
scalar MultiCell_withSecondaryGnb.secondaryGnb1.x2ppp[0].ppp rxPkOk:count 14809
scalar MultiCell_withSecondaryGnb.secondaryGnb1.x2ppp[0].ppp rxPkOk:sum(packetBytes) 1821475
scalar MultiCell_withSecondaryGnb.secondaryGnb1.x2ppp[0].ppp txPk:count 4
scalar MultiCell_withSecondaryGnb.secondaryGnb1.x2ppp[0].ppp txPk:sum(packetBytes) 444
scalar MultiCell_withSecondaryGnb.secondaryGnb1.x2ppp[0].ppp rcvdPkFromHl:count 4
scalar MultiCell_withSecondaryGnb.secondaryGnb1.x2ppp[0].ppp rcvdPkFromHl:sum(packetBytes) 416
scalar MultiCell_withSecondaryGnb.secondaryGnb1.x2ppp[0].ppp passedUpPk:count 14809
scalar MultiCell_withSecondaryGnb.secondaryGnb1.x2ppp[0].ppp passedUpPk:sum(packetBytes) 1717812
scalar MultiCell_withSecondaryGnb.secondaryGnb1.x2ppp[0].ppp packetDropIncorrectlyReceived:count 0
scalar MultiCell_withSecondaryGnb.secondaryGnb1.x2ppp[0].ppp packetDropIncorrectlyReceived:sum(packetBytes) 0
scalar MultiCell_withSecondaryGnb.secondaryGnb1.x2ppp[0].ppp packetDropInterfaceDown:count 0
scalar MultiCell_withSecondaryGnb.secondaryGnb1.x2ppp[0].ppp packetDropInterfaceDown:sum(packetBytes) 0
scalar MultiCell_withSecondaryGnb.secondaryGnb1.x2ppp[0] packetDropInterfaceDown:count 0
scalar MultiCell_withSecondaryGnb.secondaryGnb1.x2ppp[0] packetDropInterfaceDown:sum(packetBytes) 0
scalar MultiCell_withSecondaryGnb.secondaryGnb1.x2ppp[0] packetDropNoCarrier:count 0
scalar MultiCell_withSecondaryGnb.secondaryGnb1.x2ppp[0] packetDropNoCarrier:sum(packetBytes) 0
scalar MultiCell_withSecondaryGnb.secondaryGnb1.pppMEHostIf.queue queueLength:last 0
scalar MultiCell_withSecondaryGnb.secondaryGnb1.pppMEHostIf.queue queueLength:max 0
scalar MultiCell_withSecondaryGnb.secondaryGnb1.pppMEHostIf.queue queueLength:timeavg 0
scalar MultiCell_withSecondaryGnb.secondaryGnb1.pppMEHostIf.queue queueBitLength:last 0
scalar MultiCell_withSecondaryGnb.secondaryGnb1.pppMEHostIf.queue queueBitLength:max 0
scalar MultiCell_withSecondaryGnb.secondaryGnb1.pppMEHostIf.queue queueBitLength:timeavg 0
scalar MultiCell_withSecondaryGnb.secondaryGnb1.pppMEHostIf.queue outgoingPackets:count 0
scalar MultiCell_withSecondaryGnb.secondaryGnb1.pppMEHostIf.queue outgoingPacketLengths:sum 0
scalar MultiCell_withSecondaryGnb.secondaryGnb1.pppMEHostIf.queue incomingPackets:count 0
scalar MultiCell_withSecondaryGnb.secondaryGnb1.pppMEHostIf.queue incomingPacketLengths:sum 0
scalar MultiCell_withSecondaryGnb.secondaryGnb1.pppMEHostIf.queue droppedPacketsQueueOverflow:count 0
scalar MultiCell_withSecondaryGnb.secondaryGnb1.pppMEHostIf.queue droppedPacketLengthsQueueOverflow:sum 0
scalar MultiCell_withSecondaryGnb.secondaryGnb1.pppMEHostIf.ppp transmissionState:timeavg 0
scalar MultiCell_withSecondaryGnb.secondaryGnb1.pppMEHostIf.ppp rxPkOk:count 0
scalar MultiCell_withSecondaryGnb.secondaryGnb1.pppMEHostIf.ppp rxPkOk:sum(packetBytes) 0
scalar MultiCell_withSecondaryGnb.secondaryGnb1.pppMEHostIf.ppp txPk:count 0
scalar MultiCell_withSecondaryGnb.secondaryGnb1.pppMEHostIf.ppp txPk:sum(packetBytes) 0
scalar MultiCell_withSecondaryGnb.secondaryGnb1.pppMEHostIf.ppp rcvdPkFromHl:count 0
scalar MultiCell_withSecondaryGnb.secondaryGnb1.pppMEHostIf.ppp rcvdPkFromHl:sum(packetBytes) 0
scalar MultiCell_withSecondaryGnb.secondaryGnb1.pppMEHostIf.ppp passedUpPk:count 0
scalar MultiCell_withSecondaryGnb.secondaryGnb1.pppMEHostIf.ppp passedUpPk:sum(packetBytes) 0
scalar MultiCell_withSecondaryGnb.secondaryGnb1.pppMEHostIf.ppp packetDropIncorrectlyReceived:count 0
scalar MultiCell_withSecondaryGnb.secondaryGnb1.pppMEHostIf.ppp packetDropIncorrectlyReceived:sum(packetBytes) 0
scalar MultiCell_withSecondaryGnb.secondaryGnb1.pppMEHostIf.ppp packetDropInterfaceDown:count 0
scalar MultiCell_withSecondaryGnb.secondaryGnb1.pppMEHostIf.ppp packetDropInterfaceDown:sum(packetBytes) 0
scalar MultiCell_withSecondaryGnb.secondaryGnb1.pppMEHostIf packetDropInterfaceDown:count 0
scalar MultiCell_withSecondaryGnb.secondaryGnb1.pppMEHostIf packetDropInterfaceDown:sum(packetBytes) 0
scalar MultiCell_withSecondaryGnb.secondaryGnb1.pppMEHostIf packetDropNoCarrier:count 0
scalar MultiCell_withSecondaryGnb.secondaryGnb1.pppMEHostIf packetDropNoCarrier:sum(packetBytes) 0
scalar MultiCell_withSecondaryGnb.secondaryGnb1.ipv4.ip packetDropAddressResolutionFailed:count 0
scalar MultiCell_withSecondaryGnb.secondaryGnb1.ipv4.ip packetDropAddressResolutionFailed:sum(packetBytes) 0
scalar MultiCell_withSecondaryGnb.secondaryGnb1.ipv4.ip packetDropHopLimitReached:count 0
scalar MultiCell_withSecondaryGnb.secondaryGnb1.ipv4.ip packetDropHopLimitReached:sum(packetBytes) 0
scalar MultiCell_withSecondaryGnb.secondaryGnb1.ipv4.ip packetDropForwardingDisabled:count 0
scalar MultiCell_withSecondaryGnb.secondaryGnb1.ipv4.ip packetDropForwardingDisabled:sum(packetBytes) 0
scalar MultiCell_withSecondaryGnb.secondaryGnb1.ipv4.ip packetDropNoInterfaceFound:count 0
scalar MultiCell_withSecondaryGnb.secondaryGnb1.ipv4.ip packetDropNoInterfaceFound:sum(packetBytes) 0
scalar MultiCell_withSecondaryGnb.secondaryGnb1.ipv4.ip packetDropNoRouteFound:count 0
scalar MultiCell_withSecondaryGnb.secondaryGnb1.ipv4.ip packetDropNoRouteFound:sum(packetBytes) 0
scalar MultiCell_withSecondaryGnb.secondaryGnb1.ipv4.ip packetDropUndefined:count 0
scalar MultiCell_withSecondaryGnb.secondaryGnb1.ipv4.ip packetDropUndefined:sum(packetBytes) 0
scalar MultiCell_withSecondaryGnb.secondaryGnb1.ipv4.arp arpResolutionFailed:count 0
scalar MultiCell_withSecondaryGnb.secondaryGnb1.ipv4.arp arpResolutionCompleted:count 0
scalar MultiCell_withSecondaryGnb.secondaryGnb1.ipv4.arp arpResolutionInitiated:count 0
scalar MultiCell_withSecondaryGnb.secondaryGnb1.ipv4.arp arpReplySent:count 0
scalar MultiCell_withSecondaryGnb.secondaryGnb1.ipv4.arp arpReplySent:sum(packetBytes) 0
scalar MultiCell_withSecondaryGnb.secondaryGnb1.ipv4.arp arpRequestSent:count 0
scalar MultiCell_withSecondaryGnb.secondaryGnb1.ipv4.arp arpRequestSent:sum(packetBytes) 0
scalar MultiCell_withSecondaryGnb.secondaryGnb1.udp packetReceived:count 14805
scalar MultiCell_withSecondaryGnb.secondaryGnb1.udp packetReceived:sum(packetBytes) 1421280
scalar MultiCell_withSecondaryGnb.secondaryGnb1.udp packetSent:count 0
scalar MultiCell_withSecondaryGnb.secondaryGnb1.udp packetSent:sum(packetBytes) 0
scalar MultiCell_withSecondaryGnb.secondaryGnb1.udp passedUpPk:count 14805
scalar MultiCell_withSecondaryGnb.secondaryGnb1.udp droppedPkWrongPort:count 0
scalar MultiCell_withSecondaryGnb.secondaryGnb1.udp droppedPkBadChecksum:count 0
scalar MultiCell_withSecondaryGnb.secondaryGnb1.x2App[0].client packetReceived:count 0
scalar MultiCell_withSecondaryGnb.secondaryGnb1.x2App[0].client packetReceived:sum(packetBytes) 0
scalar MultiCell_withSecondaryGnb.secondaryGnb1.x2App[0].client packetSent:count 0
scalar MultiCell_withSecondaryGnb.secondaryGnb1.x2App[0].client packetSent:sum(packetBytes) 0
scalar MultiCell_withSecondaryGnb.secondaryGnb1.x2App[0].client echoedPk:count 0
scalar MultiCell_withSecondaryGnb.secondaryGnb1.x2App[0].client echoedPk:sum(packetBytes) 0
scalar MultiCell_withSecondaryGnb.secondaryGnb1.x2App[0].server "bytes rcvd" 0
scalar MultiCell_withSecondaryGnb.secondaryGnb1.x2App[0].server throughput -nan
scalar MultiCell_withSecondaryGnb.masterEnb2.cellularNic.rlcMux rlcCellThroughputD2D:simu5g_rateavg -nan
scalar MultiCell_withSecondaryGnb.masterEnb2.cellularNic.rlcMux rlcPduThroughputD2D:simu5g_rateavg -nan
scalar MultiCell_withSecondaryGnb.masterEnb2.cellularNic.rlcMux rlcPduDelayD2D:mean -nan
scalar MultiCell_withSecondaryGnb.masterEnb2.cellularNic.rlcMux rlcThroughputD2D:simu5g_rateavg -nan
scalar MultiCell_withSecondaryGnb.masterEnb2.cellularNic.rlcMux rlcDelayD2D:mean -nan
scalar MultiCell_withSecondaryGnb.masterEnb2.cellularNic.rlcMux rlcCellThroughputUl:simu5g_rateavg -nan
scalar MultiCell_withSecondaryGnb.masterEnb2.cellularNic.rlcMux rlcCellThroughputDl:simu5g_rateavg 68865.749112427919
scalar MultiCell_withSecondaryGnb.masterEnb2.cellularNic.rlcMux rlcPduThroughputUl:simu5g_rateavg -nan
scalar MultiCell_withSecondaryGnb.masterEnb2.cellularNic.rlcMux rlcPduThroughputDl:simu5g_rateavg -nan
scalar MultiCell_withSecondaryGnb.masterEnb2.cellularNic.rlcMux rlcPduDelayUl:mean -nan
scalar MultiCell_withSecondaryGnb.masterEnb2.cellularNic.rlcMux rlcPduDelayDl:mean -nan
scalar MultiCell_withSecondaryGnb.masterEnb2.cellularNic.rlcMux rlcThroughputUl:simu5g_rateavg -nan
scalar MultiCell_withSecondaryGnb.masterEnb2.cellularNic.rlcMux rlcThroughputDl:simu5g_rateavg -nan
scalar MultiCell_withSecondaryGnb.masterEnb2.cellularNic.rlcMux rlcDelayUl:mean -nan
scalar MultiCell_withSecondaryGnb.masterEnb2.cellularNic.rlcMux rlcDelayDl:mean -nan
scalar MultiCell_withSecondaryGnb.masterEnb2.cellularNic.rlcMux sentPacketToLowerLayer:count 23521
scalar MultiCell_withSecondaryGnb.masterEnb2.cellularNic.rlcMux sentPacketToLowerLayer:sum(packetBytes) 1650890
scalar MultiCell_withSecondaryGnb.masterEnb2.cellularNic.rlcMux receivedPacketFromLowerLayer:count 0
scalar MultiCell_withSecondaryGnb.masterEnb2.cellularNic.rlcMux receivedPacketFromLowerLayer:sum(packetBytes) 0
scalar MultiCell_withSecondaryGnb.masterEnb2.cellularNic.mac avgServedBlocksUl:mean 0
scalar MultiCell_withSecondaryGnb.masterEnb2.cellularNic.mac avgServedBlocksDl:mean 0.30136000000000002
scalar MultiCell_withSecondaryGnb.masterEnb2.cellularNic.mac macCellPacketLossD2D:mean -nan
scalar MultiCell_withSecondaryGnb.masterEnb2.cellularNic.mac macCellThroughputD2D:simu5g_rateavg -nan
scalar MultiCell_withSecondaryGnb.masterEnb2.cellularNic.mac harqTxAttemptsUl:mean -nan
scalar MultiCell_withSecondaryGnb.masterEnb2.cellularNic.mac harqTxAttemptsDl:mean -nan
scalar MultiCell_withSecondaryGnb.masterEnb2.cellularNic.mac harqErrorRate_4th_Ul:mean -nan
scalar MultiCell_withSecondaryGnb.masterEnb2.cellularNic.mac harqErrorRate_4th_Dl:mean -nan
scalar MultiCell_withSecondaryGnb.masterEnb2.cellularNic.mac harqErrorRate_3rd_Ul:mean -nan
scalar MultiCell_withSecondaryGnb.masterEnb2.cellularNic.mac harqErrorRate_3rd_Dl:mean -nan
scalar MultiCell_withSecondaryGnb.masterEnb2.cellularNic.mac harqErrorRate_2nd_Ul:mean -nan
scalar MultiCell_withSecondaryGnb.masterEnb2.cellularNic.mac harqErrorRate_2nd_Dl:mean -nan
scalar MultiCell_withSecondaryGnb.masterEnb2.cellularNic.mac harqErrorRate_1st_Ul:mean -nan
scalar MultiCell_withSecondaryGnb.masterEnb2.cellularNic.mac harqErrorRate_1st_Dl:mean -nan
scalar MultiCell_withSecondaryGnb.masterEnb2.cellularNic.mac harqErrorRateUl:mean -nan
scalar MultiCell_withSecondaryGnb.masterEnb2.cellularNic.mac harqErrorRateDl:mean -nan
scalar MultiCell_withSecondaryGnb.masterEnb2.cellularNic.mac macCellPacketLossUl:mean -nan
scalar MultiCell_withSecondaryGnb.masterEnb2.cellularNic.mac macCellPacketLossDl:mean 0
scalar MultiCell_withSecondaryGnb.masterEnb2.cellularNic.mac macPacketLossUl:mean -nan
scalar MultiCell_withSecondaryGnb.masterEnb2.cellularNic.mac macPacketLossDl:mean -nan
scalar MultiCell_withSecondaryGnb.masterEnb2.cellularNic.mac macThroughputUl:simu5g_rateavg -nan
scalar MultiCell_withSecondaryGnb.masterEnb2.cellularNic.mac macThroughputDl:simu5g_rateavg -nan
scalar MultiCell_withSecondaryGnb.masterEnb2.cellularNic.mac macDelayUl:mean -nan
scalar MultiCell_withSecondaryGnb.masterEnb2.cellularNic.mac macDelayDl:mean -nan
scalar MultiCell_withSecondaryGnb.masterEnb2.cellularNic.mac macCellThroughputUl:simu5g_rateavg -nan
scalar MultiCell_withSecondaryGnb.masterEnb2.cellularNic.mac macCellThroughputDl:simu5g_rateavg 72847.740132349849
scalar MultiCell_withSecondaryGnb.masterEnb2.cellularNic.mac sentPacketToLowerLayer:count 14278
scalar MultiCell_withSecondaryGnb.masterEnb2.cellularNic.mac sentPacketToLowerLayer:sum(packetBytes) 1047938
scalar MultiCell_withSecondaryGnb.masterEnb2.cellularNic.mac sentPacketToUpperLayer:count 11728
scalar MultiCell_withSecondaryGnb.masterEnb2.cellularNic.mac sentPacketToUpperLayer:sum(packetBytes) 11728
scalar MultiCell_withSecondaryGnb.masterEnb2.cellularNic.mac receivedPacketFromLowerLayer:count 29993
scalar MultiCell_withSecondaryGnb.masterEnb2.cellularNic.mac receivedPacketFromLowerLayer:sum(packetBytes) 29993
scalar MultiCell_withSecondaryGnb.masterEnb2.cellularNic.mac receivedPacketFromUpperLayer:count 23521
scalar MultiCell_withSecondaryGnb.masterEnb2.cellularNic.mac receivedPacketFromUpperLayer:sum(packetBytes) 1650890
scalar MultiCell_withSecondaryGnb.masterEnb2.cellularNic.mac macBufferOverFlowD2D:mean -nan
scalar MultiCell_withSecondaryGnb.masterEnb2.cellularNic.mac macBufferOverFlowUl:mean -nan
scalar MultiCell_withSecondaryGnb.masterEnb2.cellularNic.mac macBufferOverFlowDl:mean -nan
scalar MultiCell_withSecondaryGnb.masterEnb2.cellularNic.channelModel[0] measuredSinrUl:mean -nan
scalar MultiCell_withSecondaryGnb.masterEnb2.cellularNic.channelModel[0] measuredSinrDl:mean -nan
scalar MultiCell_withSecondaryGnb.masterEnb2.cellularNic.channelModel[0] rcvdSinrD2D:mean -nan
scalar MultiCell_withSecondaryGnb.masterEnb2.cellularNic.channelModel[0] rcvdSinrUl:mean -nan
scalar MultiCell_withSecondaryGnb.masterEnb2.cellularNic.channelModel[0] rcvdSinrDl:mean -nan
scalar MultiCell_withSecondaryGnb.masterEnb2.cellularNic packetDropInterfaceDown:count 0
scalar MultiCell_withSecondaryGnb.masterEnb2.cellularNic packetDropInterfaceDown:sum(packetBytes) 0
scalar MultiCell_withSecondaryGnb.masterEnb2.cellularNic packetDropNoCarrier:count 0
scalar MultiCell_withSecondaryGnb.masterEnb2.cellularNic packetDropNoCarrier:sum(packetBytes) 0
scalar MultiCell_withSecondaryGnb.masterEnb2.pppIf.queue queueLength:last 0
scalar MultiCell_withSecondaryGnb.masterEnb2.pppIf.queue queueLength:max 0
scalar MultiCell_withSecondaryGnb.masterEnb2.pppIf.queue queueLength:timeavg 0
scalar MultiCell_withSecondaryGnb.masterEnb2.pppIf.queue queueBitLength:last 0
scalar MultiCell_withSecondaryGnb.masterEnb2.pppIf.queue queueBitLength:max 0
scalar MultiCell_withSecondaryGnb.masterEnb2.pppIf.queue queueBitLength:timeavg 0
scalar MultiCell_withSecondaryGnb.masterEnb2.pppIf.queue outgoingPackets:count 0
scalar MultiCell_withSecondaryGnb.masterEnb2.pppIf.queue outgoingPacketLengths:sum 0
scalar MultiCell_withSecondaryGnb.masterEnb2.pppIf.queue incomingPackets:count 0
scalar MultiCell_withSecondaryGnb.masterEnb2.pppIf.queue incomingPacketLengths:sum 0
scalar MultiCell_withSecondaryGnb.masterEnb2.pppIf.queue droppedPacketsQueueOverflow:count 0
scalar MultiCell_withSecondaryGnb.masterEnb2.pppIf.queue droppedPacketLengthsQueueOverflow:sum 0
scalar MultiCell_withSecondaryGnb.masterEnb2.pppIf.ppp transmissionState:timeavg 0
scalar MultiCell_withSecondaryGnb.masterEnb2.pppIf.ppp rxPkOk:count 18861
scalar MultiCell_withSecondaryGnb.masterEnb2.pppIf.ppp rxPkOk:sum(packetBytes) 2093571
scalar MultiCell_withSecondaryGnb.masterEnb2.pppIf.ppp txPk:count 0
scalar MultiCell_withSecondaryGnb.masterEnb2.pppIf.ppp txPk:sum(packetBytes) 0
scalar MultiCell_withSecondaryGnb.masterEnb2.pppIf.ppp rcvdPkFromHl:count 0
scalar MultiCell_withSecondaryGnb.masterEnb2.pppIf.ppp rcvdPkFromHl:sum(packetBytes) 0
scalar MultiCell_withSecondaryGnb.masterEnb2.pppIf.ppp passedUpPk:count 18861
scalar MultiCell_withSecondaryGnb.masterEnb2.pppIf.ppp passedUpPk:sum(packetBytes) 1961544
scalar MultiCell_withSecondaryGnb.masterEnb2.pppIf.ppp packetDropIncorrectlyReceived:count 0
scalar MultiCell_withSecondaryGnb.masterEnb2.pppIf.ppp packetDropIncorrectlyReceived:sum(packetBytes) 0
scalar MultiCell_withSecondaryGnb.masterEnb2.pppIf.ppp packetDropInterfaceDown:count 0
scalar MultiCell_withSecondaryGnb.masterEnb2.pppIf.ppp packetDropInterfaceDown:sum(packetBytes) 0
scalar MultiCell_withSecondaryGnb.masterEnb2.pppIf packetDropInterfaceDown:count 0
scalar MultiCell_withSecondaryGnb.masterEnb2.pppIf packetDropInterfaceDown:sum(packetBytes) 0
scalar MultiCell_withSecondaryGnb.masterEnb2.pppIf packetDropNoCarrier:count 0
scalar MultiCell_withSecondaryGnb.masterEnb2.pppIf packetDropNoCarrier:sum(packetBytes) 0
scalar MultiCell_withSecondaryGnb.masterEnb2.x2ppp[0].queue queueLength:last 0
scalar MultiCell_withSecondaryGnb.masterEnb2.x2ppp[0].queue queueLength:max 2
scalar MultiCell_withSecondaryGnb.masterEnb2.x2ppp[0].queue queueLength:timeavg 5.6800000000000002e-09
scalar MultiCell_withSecondaryGnb.masterEnb2.x2ppp[0].queue queueBitLength:last 0
scalar MultiCell_withSecondaryGnb.masterEnb2.x2ppp[0].queue queueBitLength:max 1024
scalar MultiCell_withSecondaryGnb.masterEnb2.x2ppp[0].queue queueBitLength:timeavg 2.9081600000000001e-06
scalar MultiCell_withSecondaryGnb.masterEnb2.x2ppp[0].queue outgoingPackets:count 121
scalar MultiCell_withSecondaryGnb.masterEnb2.x2ppp[0].queue outgoingPacketLengths:sum 85048
[...]
scalar MultiCell_withSecondaryGnb.masterEnb2.sctp "Number of Non-Revokable Gap Acked Chunks in Last SACK 102:10.0.0.2:sum" 0
scalar MultiCell_withSecondaryGnb.masterEnb2.sctp "Number of Non-Revokable Gap Acked Chunks in Last SACK 102:10.0.0.2:sumweights" 0
scalar MultiCell_withSecondaryGnb.masterEnb2.sctp "Number of Non-Revokable Gap Acked Chunks in Last SACK 102:10.0.0.2:mean" -nan
scalar MultiCell_withSecondaryGnb.masterEnb2.sctp "Number of Non-Revokable Gap Acked Chunks in Last SACK 102:10.0.0.2:stddev" nan
scalar MultiCell_withSecondaryGnb.masterEnb2.sctp "Number of Non-Revokable Gap Acked Chunks in Last SACK 102:10.0.0.2:min" inf
scalar MultiCell_withSecondaryGnb.masterEnb2.sctp "Number of Non-Revokable Gap Acked Chunks in Last SACK 102:10.0.0.2:max" -inf
scalar MultiCell_withSecondaryGnb.masterEnb2.sctp "Number of Non-Revokable Gap Acked Chunks in Last SACK 102:10.0.0.2:starttime" nan
scalar MultiCell_withSecondaryGnb.masterEnb2.sctp "Number of Non-Revokable Gap Acked Chunks in Last SACK 102:10.0.0.2:endtime" nan
scalar MultiCell_withSecondaryGnb.masterEnb2.sctp "Number of Gap Missed Chunks in Last SACK 102:10.0.0.2:count" 0
scalar MultiCell_withSecondaryGnb.masterEnb2.sctp "Number of Gap Missed Chunks in Last SACK 102:10.0.0.2:sum" 0
scalar MultiCell_withSecondaryGnb.masterEnb2.sctp "Number of Gap Missed Chunks in Last SACK 102:10.0.0.2:sumweights" 0
scalar MultiCell_withSecondaryGnb.masterEnb2.sctp "Number of Gap Missed Chunks in Last SACK 102:10.0.0.2:mean" -nan
scalar MultiCell_withSecondaryGnb.masterEnb2.sctp "Number of Gap Missed Chunks in Last SACK 102:10.0.0.2:stddev" nan
scalar MultiCell_withSecondaryGnb.masterEnb2.sctp "Number of Gap Missed Chunks in Last SACK 102:10.0.0.2:min" inf
scalar MultiCell_withSecondaryGnb.masterEnb2.sctp "Number of Gap Missed Chunks in Last SACK 102:10.0.0.2:max" -inf
scalar MultiCell_withSecondaryGnb.masterEnb2.sctp "Number of Gap Missed Chunks in Last SACK 102:10.0.0.2:starttime" nan
scalar MultiCell_withSecondaryGnb.masterEnb2.sctp "Number of Gap Missed Chunks in Last SACK 102:10.0.0.2:endtime" nan
scalar MultiCell_withSecondaryGnb.masterEnb2.sctp "Number of Gap Acked Chunks in Last SACK 102:10.0.2.1:count" 0
scalar MultiCell_withSecondaryGnb.masterEnb2.sctp "Number of Gap Acked Chunks in Last SACK 102:10.0.2.1:sum" 0
scalar MultiCell_withSecondaryGnb.masterEnb2.sctp "Number of Gap Acked Chunks in Last SACK 102:10.0.2.1:sumweights" 0
scalar MultiCell_withSecondaryGnb.masterEnb2.sctp "Number of Gap Acked Chunks in Last SACK 102:10.0.2.1:mean" -nan
scalar MultiCell_withSecondaryGnb.masterEnb2.sctp "Number of Gap Acked Chunks in Last SACK 102:10.0.2.1:stddev" nan
scalar MultiCell_withSecondaryGnb.masterEnb2.sctp "Number of Gap Acked Chunks in Last SACK 102:10.0.2.1:min" inf
scalar MultiCell_withSecondaryGnb.masterEnb2.sctp "Number of Gap Acked Chunks in Last SACK 102:10.0.2.1:max" -inf
scalar MultiCell_withSecondaryGnb.masterEnb2.sctp "Number of Gap Acked Chunks in Last SACK 102:10.0.2.1:starttime" nan
scalar MultiCell_withSecondaryGnb.masterEnb2.sctp "Number of Gap Acked Chunks in Last SACK 102:10.0.2.1:endtime" nan
scalar MultiCell_withSecondaryGnb.masterEnb2.sctp "Number of Non-Revokable Gap Acked Chunks in Last SACK 102:10.0.2.1:count" 0
scalar MultiCell_withSecondaryGnb.masterEnb2.sctp "Number of Non-Revokable Gap Acked Chunks in Last SACK 102:10.0.2.1:sum" 0
scalar MultiCell_withSecondaryGnb.masterEnb2.sctp "Number of Non-Revokable Gap Acked Chunks in Last SACK 102:10.0.2.1:sumweights" 0
scalar MultiCell_withSecondaryGnb.masterEnb2.sctp "Number of Non-Revokable Gap Acked Chunks in Last SACK 102:10.0.2.1:mean" -nan
scalar MultiCell_withSecondaryGnb.masterEnb2.sctp "Number of Non-Revokable Gap Acked Chunks in Last SACK 102:10.0.2.1:stddev" nan
scalar MultiCell_withSecondaryGnb.masterEnb2.sctp "Number of Non-Revokable Gap Acked Chunks in Last SACK 102:10.0.2.1:min" inf
scalar MultiCell_withSecondaryGnb.masterEnb2.sctp "Number of Non-Revokable Gap Acked Chunks in Last SACK 102:10.0.2.1:max" -inf
scalar MultiCell_withSecondaryGnb.masterEnb2.sctp "Number of Non-Revokable Gap Acked Chunks in Last SACK 102:10.0.2.1:starttime" nan
scalar MultiCell_withSecondaryGnb.masterEnb2.sctp "Number of Non-Revokable Gap Acked Chunks in Last SACK 102:10.0.2.1:endtime" nan
scalar MultiCell_withSecondaryGnb.masterEnb2.sctp "Number of Gap Missed Chunks in Last SACK 102:10.0.2.1:count" 0
scalar MultiCell_withSecondaryGnb.masterEnb2.sctp "Number of Gap Missed Chunks in Last SACK 102:10.0.2.1:sum" 0
scalar MultiCell_withSecondaryGnb.masterEnb2.sctp "Number of Gap Missed Chunks in Last SACK 102:10.0.2.1:sumweights" 0
scalar MultiCell_withSecondaryGnb.masterEnb2.sctp "Number of Gap Missed Chunks in Last SACK 102:10.0.2.1:mean" -nan
scalar MultiCell_withSecondaryGnb.masterEnb2.sctp "Number of Gap Missed Chunks in Last SACK 102:10.0.2.1:stddev" nan
scalar MultiCell_withSecondaryGnb.masterEnb2.sctp "Number of Gap Missed Chunks in Last SACK 102:10.0.2.1:min" inf
scalar MultiCell_withSecondaryGnb.masterEnb2.sctp "Number of Gap Missed Chunks in Last SACK 102:10.0.2.1:max" -inf
scalar MultiCell_withSecondaryGnb.masterEnb2.sctp "Number of Gap Missed Chunks in Last SACK 102:10.0.2.1:starttime" nan
scalar MultiCell_withSecondaryGnb.masterEnb2.sctp "Number of Gap Missed Chunks in Last SACK 102:10.0.2.1:endtime" nan
scalar MultiCell_withSecondaryGnb.masterEnb2.sctp "Number of Gap Acked Chunks in Last SACK 102:10.0.3.1:count" 0
scalar MultiCell_withSecondaryGnb.masterEnb2.sctp "Number of Gap Acked Chunks in Last SACK 102:10.0.3.1:sum" 0
scalar MultiCell_withSecondaryGnb.masterEnb2.sctp "Number of Gap Acked Chunks in Last SACK 102:10.0.3.1:sumweights" 0
scalar MultiCell_withSecondaryGnb.masterEnb2.sctp "Number of Gap Acked Chunks in Last SACK 102:10.0.3.1:mean" -nan
scalar MultiCell_withSecondaryGnb.masterEnb2.sctp "Number of Gap Acked Chunks in Last SACK 102:10.0.3.1:stddev" nan
scalar MultiCell_withSecondaryGnb.masterEnb2.sctp "Number of Gap Acked Chunks in Last SACK 102:10.0.3.1:min" inf
scalar MultiCell_withSecondaryGnb.masterEnb2.sctp "Number of Gap Acked Chunks in Last SACK 102:10.0.3.1:max" -inf
scalar MultiCell_withSecondaryGnb.masterEnb2.sctp "Number of Gap Acked Chunks in Last SACK 102:10.0.3.1:starttime" nan
scalar MultiCell_withSecondaryGnb.masterEnb2.sctp "Number of Gap Acked Chunks in Last SACK 102:10.0.3.1:endtime" nan
scalar MultiCell_withSecondaryGnb.masterEnb2.sctp "Number of Non-Revokable Gap Acked Chunks in Last SACK 102:10.0.3.1:count" 0
scalar MultiCell_withSecondaryGnb.masterEnb2.sctp "Number of Non-Revokable Gap Acked Chunks in Last SACK 102:10.0.3.1:sum" 0
scalar MultiCell_withSecondaryGnb.masterEnb2.sctp "Number of Non-Revokable Gap Acked Chunks in Last SACK 102:10.0.3.1:sumweights" 0
scalar MultiCell_withSecondaryGnb.masterEnb2.sctp "Number of Non-Revokable Gap Acked Chunks in Last SACK 102:10.0.3.1:mean" -nan
scalar MultiCell_withSecondaryGnb.masterEnb2.sctp "Number of Non-Revokable Gap Acked Chunks in Last SACK 102:10.0.3.1:stddev" nan
scalar MultiCell_withSecondaryGnb.masterEnb2.sctp "Number of Non-Revokable Gap Acked Chunks in Last SACK 102:10.0.3.1:min" inf
scalar MultiCell_withSecondaryGnb.masterEnb2.sctp "Number of Non-Revokable Gap Acked Chunks in Last SACK 102:10.0.3.1:max" -inf
scalar MultiCell_withSecondaryGnb.masterEnb2.sctp "Number of Non-Revokable Gap Acked Chunks in Last SACK 102:10.0.3.1:starttime" nan
scalar MultiCell_withSecondaryGnb.masterEnb2.sctp "Number of Non-Revokable Gap Acked Chunks in Last SACK 102:10.0.3.1:endtime" nan
scalar MultiCell_withSecondaryGnb.masterEnb2.sctp "Number of Gap Missed Chunks in Last SACK 102:10.0.3.1:count" 0
scalar MultiCell_withSecondaryGnb.masterEnb2.sctp "Number of Gap Missed Chunks in Last SACK 102:10.0.3.1:sum" 0
scalar MultiCell_withSecondaryGnb.masterEnb2.sctp "Number of Gap Missed Chunks in Last SACK 102:10.0.3.1:sumweights" 0
scalar MultiCell_withSecondaryGnb.masterEnb2.sctp "Number of Gap Missed Chunks in Last SACK 102:10.0.3.1:mean" -nan
scalar MultiCell_withSecondaryGnb.masterEnb2.sctp "Number of Gap Missed Chunks in Last SACK 102:10.0.3.1:stddev" nan
scalar MultiCell_withSecondaryGnb.masterEnb2.sctp "Number of Gap Missed Chunks in Last SACK 102:10.0.3.1:min" inf
scalar MultiCell_withSecondaryGnb.masterEnb2.sctp "Number of Gap Missed Chunks in Last SACK 102:10.0.3.1:max" -inf
scalar MultiCell_withSecondaryGnb.masterEnb2.sctp "Number of Gap Missed Chunks in Last SACK 102:10.0.3.1:starttime" nan
scalar MultiCell_withSecondaryGnb.masterEnb2.sctp "Number of Gap Missed Chunks in Last SACK 102:10.0.3.1:endtime" nan
scalar MultiCell_withSecondaryGnb.masterEnb2.sctp "Number of Gap Acked Chunks in Last SACK 102:10.0.4.1:count" 0
scalar MultiCell_withSecondaryGnb.masterEnb2.sctp "Number of Gap Acked Chunks in Last SACK 102:10.0.4.1:sum" 0
scalar MultiCell_withSecondaryGnb.masterEnb2.sctp "Number of Gap Acked Chunks in Last SACK 102:10.0.4.1:sumweights" 0
scalar MultiCell_withSecondaryGnb.masterEnb2.sctp "Number of Gap Acked Chunks in Last SACK 102:10.0.4.1:mean" -nan
scalar MultiCell_withSecondaryGnb.masterEnb2.sctp "Number of Gap Acked Chunks in Last SACK 102:10.0.4.1:stddev" nan
scalar MultiCell_withSecondaryGnb.masterEnb2.sctp "Number of Gap Acked Chunks in Last SACK 102:10.0.4.1:min" inf
scalar MultiCell_withSecondaryGnb.masterEnb2.sctp "Number of Gap Acked Chunks in Last SACK 102:10.0.4.1:max" -inf
scalar MultiCell_withSecondaryGnb.masterEnb2.sctp "Number of Gap Acked Chunks in Last SACK 102:10.0.4.1:starttime" nan
scalar MultiCell_withSecondaryGnb.masterEnb2.sctp "Number of Gap Acked Chunks in Last SACK 102:10.0.4.1:endtime" nan
scalar MultiCell_withSecondaryGnb.masterEnb2.sctp "Number of Non-Revokable Gap Acked Chunks in Last SACK 102:10.0.4.1:count" 0
scalar MultiCell_withSecondaryGnb.masterEnb2.sctp "Number of Non-Revokable Gap Acked Chunks in Last SACK 102:10.0.4.1:sum" 0
scalar MultiCell_withSecondaryGnb.masterEnb2.sctp "Number of Non-Revokable Gap Acked Chunks in Last SACK 102:10.0.4.1:sumweights" 0
scalar MultiCell_withSecondaryGnb.masterEnb2.sctp "Number of Non-Revokable Gap Acked Chunks in Last SACK 102:10.0.4.1:mean" -nan
scalar MultiCell_withSecondaryGnb.masterEnb2.sctp "Number of Non-Revokable Gap Acked Chunks in Last SACK 102:10.0.4.1:stddev" nan
scalar MultiCell_withSecondaryGnb.masterEnb2.sctp "Number of Non-Revokable Gap Acked Chunks in Last SACK 102:10.0.4.1:min" inf
scalar MultiCell_withSecondaryGnb.masterEnb2.sctp "Number of Non-Revokable Gap Acked Chunks in Last SACK 102:10.0.4.1:max" -inf
scalar MultiCell_withSecondaryGnb.masterEnb2.sctp "Number of Non-Revokable Gap Acked Chunks in Last SACK 102:10.0.4.1:starttime" nan
scalar MultiCell_withSecondaryGnb.masterEnb2.sctp "Number of Non-Revokable Gap Acked Chunks in Last SACK 102:10.0.4.1:endtime" nan
scalar MultiCell_withSecondaryGnb.masterEnb2.sctp "Number of Gap Missed Chunks in Last SACK 102:10.0.4.1:count" 0
scalar MultiCell_withSecondaryGnb.masterEnb2.sctp "Number of Gap Missed Chunks in Last SACK 102:10.0.4.1:sum" 0
scalar MultiCell_withSecondaryGnb.masterEnb2.sctp "Number of Gap Missed Chunks in Last SACK 102:10.0.4.1:sumweights" 0
scalar MultiCell_withSecondaryGnb.masterEnb2.sctp "Number of Gap Missed Chunks in Last SACK 102:10.0.4.1:mean" -nan
scalar MultiCell_withSecondaryGnb.masterEnb2.sctp "Number of Gap Missed Chunks in Last SACK 102:10.0.4.1:stddev" nan
scalar MultiCell_withSecondaryGnb.masterEnb2.sctp "Number of Gap Missed Chunks in Last SACK 102:10.0.4.1:min" inf
scalar MultiCell_withSecondaryGnb.masterEnb2.sctp "Number of Gap Missed Chunks in Last SACK 102:10.0.4.1:max" -inf
scalar MultiCell_withSecondaryGnb.masterEnb2.sctp "Number of Gap Missed Chunks in Last SACK 102:10.0.4.1:starttime" nan
scalar MultiCell_withSecondaryGnb.masterEnb2.sctp "Number of Gap Missed Chunks in Last SACK 102:10.0.4.1:endtime" nan
scalar MultiCell_withSecondaryGnb.masterEnb2.sctp "Number of Gap Acked Chunks in Last SACK 102:192.168.3.1:count" 0
scalar MultiCell_withSecondaryGnb.masterEnb2.sctp "Number of Gap Acked Chunks in Last SACK 102:192.168.3.1:sum" 0
scalar MultiCell_withSecondaryGnb.masterEnb2.sctp "Number of Gap Acked Chunks in Last SACK 102:192.168.3.1:sumweights" 0
scalar MultiCell_withSecondaryGnb.masterEnb2.sctp "Number of Gap Acked Chunks in Last SACK 102:192.168.3.1:mean" -nan
scalar MultiCell_withSecondaryGnb.masterEnb2.sctp "Number of Gap Acked Chunks in Last SACK 102:192.168.3.1:stddev" nan
scalar MultiCell_withSecondaryGnb.masterEnb2.sctp "Number of Gap Acked Chunks in Last SACK 102:192.168.3.1:min" inf
scalar MultiCell_withSecondaryGnb.masterEnb2.sctp "Number of Gap Acked Chunks in Last SACK 102:192.168.3.1:max" -inf
scalar MultiCell_withSecondaryGnb.masterEnb2.sctp "Number of Gap Acked Chunks in Last SACK 102:192.168.3.1:starttime" nan
scalar MultiCell_withSecondaryGnb.masterEnb2.sctp "Number of Gap Acked Chunks in Last SACK 102:192.168.3.1:endtime" nan
scalar MultiCell_withSecondaryGnb.masterEnb2.sctp "Number of Non-Revokable Gap Acked Chunks in Last SACK 102:192.168.3.1:count" 0
scalar MultiCell_withSecondaryGnb.masterEnb2.sctp "Number of Non-Revokable Gap Acked Chunks in Last SACK 102:192.168.3.1:sum" 0
scalar MultiCell_withSecondaryGnb.masterEnb2.sctp "Number of Non-Revokable Gap Acked Chunks in Last SACK 102:192.168.3.1:sumweights" 0
scalar MultiCell_withSecondaryGnb.masterEnb2.sctp "Number of Non-Revokable Gap Acked Chunks in Last SACK 102:192.168.3.1:mean" -nan
scalar MultiCell_withSecondaryGnb.masterEnb2.sctp "Number of Non-Revokable Gap Acked Chunks in Last SACK 102:192.168.3.1:stddev" nan
scalar MultiCell_withSecondaryGnb.masterEnb2.sctp "Number of Non-Revokable Gap Acked Chunks in Last SACK 102:192.168.3.1:min" inf
scalar MultiCell_withSecondaryGnb.masterEnb2.sctp "Number of Non-Revokable Gap Acked Chunks in Last SACK 102:192.168.3.1:max" -inf
scalar MultiCell_withSecondaryGnb.masterEnb2.sctp "Number of Non-Revokable Gap Acked Chunks in Last SACK 102:192.168.3.1:starttime" nan
scalar MultiCell_withSecondaryGnb.masterEnb2.sctp "Number of Non-Revokable Gap Acked Chunks in Last SACK 102:192.168.3.1:endtime" nan
scalar MultiCell_withSecondaryGnb.masterEnb2.sctp "Number of Gap Missed Chunks in Last SACK 102:192.168.3.1:count" 0
scalar MultiCell_withSecondaryGnb.masterEnb2.sctp "Number of Gap Missed Chunks in Last SACK 102:192.168.3.1:sum" 0
scalar MultiCell_withSecondaryGnb.masterEnb2.sctp "Number of Gap Missed Chunks in Last SACK 102:192.168.3.1:sumweights" 0
scalar MultiCell_withSecondaryGnb.masterEnb2.sctp "Number of Gap Missed Chunks in Last SACK 102:192.168.3.1:mean" -nan
scalar MultiCell_withSecondaryGnb.masterEnb2.sctp "Number of Gap Missed Chunks in Last SACK 102:192.168.3.1:stddev" nan
scalar MultiCell_withSecondaryGnb.masterEnb2.sctp "Number of Gap Missed Chunks in Last SACK 102:192.168.3.1:min" inf
scalar MultiCell_withSecondaryGnb.masterEnb2.sctp "Number of Gap Missed Chunks in Last SACK 102:192.168.3.1:max" -inf
scalar MultiCell_withSecondaryGnb.masterEnb2.sctp "Number of Gap Missed Chunks in Last SACK 102:192.168.3.1:starttime" nan
scalar MultiCell_withSecondaryGnb.masterEnb2.sctp "Number of Gap Missed Chunks in Last SACK 102:192.168.3.1:endtime" nan
scalar MultiCell_withSecondaryGnb.masterEnb2.sctp "Arwnd in Last SACK 96:count" 0
scalar MultiCell_withSecondaryGnb.masterEnb2.sctp "Arwnd in Last SACK 96:sum" 0
scalar MultiCell_withSecondaryGnb.masterEnb2.sctp "Arwnd in Last SACK 96:sumweights" 0
scalar MultiCell_withSecondaryGnb.masterEnb2.sctp "Arwnd in Last SACK 96:mean" -nan
scalar MultiCell_withSecondaryGnb.masterEnb2.sctp "Arwnd in Last SACK 96:stddev" nan
scalar MultiCell_withSecondaryGnb.masterEnb2.sctp "Arwnd in Last SACK 96:min" inf
scalar MultiCell_withSecondaryGnb.masterEnb2.sctp "Arwnd in Last SACK 96:max" -inf
scalar MultiCell_withSecondaryGnb.masterEnb2.sctp "Arwnd in Last SACK 96:starttime" nan
scalar MultiCell_withSecondaryGnb.masterEnb2.sctp "Arwnd in Last SACK 96:endtime" nan
scalar MultiCell_withSecondaryGnb.masterEnb2.sctp "TSN PseudoCumAck 102:10.0.4.1:count" 0
scalar MultiCell_withSecondaryGnb.masterEnb2.sctp "TSN PseudoCumAck 102:10.0.4.1:sum" 0
scalar MultiCell_withSecondaryGnb.masterEnb2.sctp "TSN PseudoCumAck 102:10.0.4.1:sumweights" 0
scalar MultiCell_withSecondaryGnb.masterEnb2.sctp "TSN PseudoCumAck 102:10.0.4.1:mean" -nan
scalar MultiCell_withSecondaryGnb.masterEnb2.sctp "TSN PseudoCumAck 102:10.0.4.1:stddev" nan
scalar MultiCell_withSecondaryGnb.masterEnb2.sctp "TSN PseudoCumAck 102:10.0.4.1:min" inf
scalar MultiCell_withSecondaryGnb.masterEnb2.sctp "TSN PseudoCumAck 102:10.0.4.1:max" -inf
scalar MultiCell_withSecondaryGnb.masterEnb2.sctp "TSN PseudoCumAck 102:10.0.4.1:starttime" nan
scalar MultiCell_withSecondaryGnb.masterEnb2.sctp "TSN PseudoCumAck 102:10.0.4.1:endtime" nan
scalar MultiCell_withSecondaryGnb.masterEnb2.sctp "TSN RTXPseudoCumAck 102:10.0.4.1:count" 0
scalar MultiCell_withSecondaryGnb.masterEnb2.sctp "TSN RTXPseudoCumAck 102:10.0.4.1:sum" 0
scalar MultiCell_withSecondaryGnb.masterEnb2.sctp "TSN RTXPseudoCumAck 102:10.0.4.1:sumweights" 0
scalar MultiCell_withSecondaryGnb.masterEnb2.sctp "TSN RTXPseudoCumAck 102:10.0.4.1:mean" -nan
scalar MultiCell_withSecondaryGnb.masterEnb2.sctp "TSN RTXPseudoCumAck 102:10.0.4.1:stddev" nan
scalar MultiCell_withSecondaryGnb.masterEnb2.sctp "TSN RTXPseudoCumAck 102:10.0.4.1:min" inf
scalar MultiCell_withSecondaryGnb.masterEnb2.sctp "TSN RTXPseudoCumAck 102:10.0.4.1:max" -inf
scalar MultiCell_withSecondaryGnb.masterEnb2.sctp "TSN RTXPseudoCumAck 102:10.0.4.1:starttime" nan
scalar MultiCell_withSecondaryGnb.masterEnb2.sctp "TSN RTXPseudoCumAck 102:10.0.4.1:endtime" nan
scalar MultiCell_withSecondaryGnb.masterEnb2.sctp "Partial Bytes Acked 102:10.0.4.1:count" 0
scalar MultiCell_withSecondaryGnb.masterEnb2.sctp "Partial Bytes Acked 102:10.0.4.1:sum" 0
scalar MultiCell_withSecondaryGnb.masterEnb2.sctp "Partial Bytes Acked 102:10.0.4.1:sumweights" 0
scalar MultiCell_withSecondaryGnb.masterEnb2.sctp "Partial Bytes Acked 102:10.0.4.1:mean" -nan
scalar MultiCell_withSecondaryGnb.masterEnb2.sctp "Partial Bytes Acked 102:10.0.4.1:stddev" nan
scalar MultiCell_withSecondaryGnb.masterEnb2.sctp "Partial Bytes Acked 102:10.0.4.1:min" inf
scalar MultiCell_withSecondaryGnb.masterEnb2.sctp "Partial Bytes Acked 102:10.0.4.1:max" -inf
scalar MultiCell_withSecondaryGnb.masterEnb2.sctp "Partial Bytes Acked 102:10.0.4.1:starttime" nan
scalar MultiCell_withSecondaryGnb.masterEnb2.sctp "Partial Bytes Acked 102:10.0.4.1:endtime" nan
scalar MultiCell_withSecondaryGnb.masterEnb2.sctp "Stream 0 Throughput:count" 0
scalar MultiCell_withSecondaryGnb.masterEnb2.sctp "Stream 0 Throughput:sum" 0
scalar MultiCell_withSecondaryGnb.masterEnb2.sctp "Stream 0 Throughput:sumweights" 0
scalar MultiCell_withSecondaryGnb.masterEnb2.sctp "Stream 0 Throughput:mean" -nan
scalar MultiCell_withSecondaryGnb.masterEnb2.sctp "Stream 0 Throughput:stddev" nan
scalar MultiCell_withSecondaryGnb.masterEnb2.sctp "Stream 0 Throughput:min" inf
scalar MultiCell_withSecondaryGnb.masterEnb2.sctp "Stream 0 Throughput:max" -inf
scalar MultiCell_withSecondaryGnb.masterEnb2.sctp "Stream 0 Throughput:starttime" nan
scalar MultiCell_withSecondaryGnb.masterEnb2.sctp "Stream 0 Throughput:endtime" nan
scalar MultiCell_withSecondaryGnb.masterEnb1.sctp "Stream 0 Throughput:count" 0
scalar MultiCell_withSecondaryGnb.masterEnb1.sctp "Stream 0 Throughput:sum" 0
scalar MultiCell_withSecondaryGnb.masterEnb1.sctp "Stream 0 Throughput:sumweights" 0
scalar MultiCell_withSecondaryGnb.masterEnb1.sctp "Stream 0 Throughput:mean" -nan
scalar MultiCell_withSecondaryGnb.masterEnb1.sctp "Stream 0 Throughput:stddev" nan
scalar MultiCell_withSecondaryGnb.masterEnb1.sctp "Stream 0 Throughput:min" inf
scalar MultiCell_withSecondaryGnb.masterEnb1.sctp "Stream 0 Throughput:max" -inf
scalar MultiCell_withSecondaryGnb.masterEnb1.sctp "Stream 0 Throughput:starttime" nan
scalar MultiCell_withSecondaryGnb.masterEnb1.sctp "Stream 0 Throughput:endtime" nan

