version 3
run MultiCell-CBR-UL-0-20260712-14:08:02-21714
attr configname MultiCell-CBR-UL
attr datetime 20260712-14:08:02
attr datetimef 20260712-140802
attr experiment MultiCell-CBR-UL
attr inifile omnetpp.ini
attr iterationvars "$u=0, $numUe=10, $numUeApps=2"
attr iterationvarsd u=0/numUe=10/numUeApps=2
attr iterationvarsf u=0,numUe=10,numUeApps=2-
attr measurement "$u=0, $numUe=10, $numUeApps=2"
attr network simu5g.simulations.nr.networks.MultiCell_withSecondaryGnb
attr processid 21714
attr repetition 0
attr replication #0
attr resultdir results
attr runnumber 0
attr seedset 0
itervar numUe 10
itervar numUeApps 2
itervar u 0
config **.param-recording false
config image-path /home/andras/projects/Simu5G-fork/simu5g-fork/images
config output-scalar-file results/omnetpp.ini-MultiCell-CBR-UL-#0.sca
config output-scalar-precision 17
config output-vector-file results/omnetpp.ini-MultiCell-CBR-UL-#0.vec
config output-vector-precision 17
config record-eventlog false
config sim-time-limit 50s
config extends "MultiCell, CBR-UL"
config network simu5g.simulations.nr.networks.MultiCell_withSecondaryGnb
config sim-time-limit 50s
config *.carrierAggregation.numComponentCarriers 2
config *.carrierAggregation.componentCarrier[0].numerologyIndex 0
config *.carrierAggregation.componentCarrier[0].carrierFrequency 2GHz
config *.carrierAggregation.componentCarrier[0].numBands 6
config *.carrierAggregation.componentCarrier[1].numerologyIndex 0
config *.carrierAggregation.componentCarrier[1].carrierFrequency 6GHz
config *.carrierAggregation.componentCarrier[1].numBands 6
config *.masterEnb*.cellularNic.numCarriers 1
config *.masterEnb*.cellularNic.channelModel[0].componentCarrierModule "\"carrierAggregation.componentCarrier[0]\""
config *.secondaryGnb*.cellularNic.numCarriers 1
config *.secondaryGnb*.cellularNic.channelModel[0].componentCarrierModule "\"carrierAggregation.componentCarrier[1]\""
config *.ue[*].cellularNic.numCarriers 1
config *.ue[*].cellularNic.numNrCarriers 1
config *.ue[*].cellularNic.channelModel[0].componentCarrierModule "\"carrierAggregation.componentCarrier[0]\""
config *.ue[*].cellularNic.nrChannelModel[0].componentCarrierModule "\"carrierAggregation.componentCarrier[1]\""
config *.masterEnb1.mobility.initialX 300m
config *.masterEnb1.mobility.initialY 300m
config *.masterEnb2.mobility.initialX 800m
config *.masterEnb2.mobility.initialY 300m
config *.secondaryGnb1.mobility.initialX 300m
config *.secondaryGnb1.mobility.initialY 600m
config *.secondaryGnb2.mobility.initialX 800m
config *.secondaryGnb2.mobility.initialY 600m
config *.masterEnb*.cellularNic.typename LteNicEnbD2D
config *.masterEnb*.cellularNic.pdcp.typename NrPdcpEnb
config *.secondaryGnb1.masterId 1
config *.secondaryGnb2.masterId 3
config **.dualConnectivityEnabled true
config *.masterEnb*.numX2Apps 2
config *.secondaryGnb*.numX2Apps 1
config *.*nb*.x2App[*].server.localPort "5000 + ancestorIndex(1)"
config *.secondaryGnb1.x2App[0].client.connectAddress "\"masterEnb1%x2ppp0\""
config *.masterEnb1.x2App[0].client.connectAddress "\"secondaryGnb1%x2ppp0\""
config *.masterEnb1.x2App[1].client.connectAddress "\"masterEnb2%x2ppp1\""
config *.masterEnb2.x2App[0].client.connectAddress "\"masterEnb1%x2ppp1\""
config *.masterEnb2.x2App[1].client.connectAddress "\"secondaryGnb2%x2ppp0\""
config *.secondaryGnb2.x2App[0].client.connectAddress "\"masterEnb2%x2ppp0\""
config *.numUe 10
config *.ue[*].servingNodeId 1
config *.ue[*].nrServingNodeId 2
config **.mobility.constraintAreaMaxX 1100m
config **.mobility.constraintAreaMaxY 600m
config **.mobility.constraintAreaMinX 0m
config **.mobility.constraintAreaMinY 300m
config *.ue[*].mobility.typename RandomWaypointMobility
config *.ue[*].mobility.initialX uniform(0m,1100m)
config *.ue[*].mobility.initialY uniform(300m,600m)
config *.ue[*].mobility.speed uniform(5mps,15mps)
config *.ue[*].numApps 2
config *.server.numApps 10*2
config *.server.app[*].typename CbrReceiver
config *.server.app[0..9].localPort 1000+ancestorIndex(0)
config *.server.app[10..19].localPort 10000+ancestorIndex(0)-10
config *.ue[*].app[*].destAddress "\"server\""
config *.ue[*].app[*].localPort 3088+ancestorIndex(0)
config *.ue[*].app[0].destPort 1000+ancestorIndex(1)
config *.ue[*].app[1].destPort 10000+ancestorIndex(1)
config *.ue[*].app[0].tos 0
config *.ue[*].app[1].tos 10
config *.ue[*].app[*].typename CbrSender
config *.ue[*].app[*].startTime uniform(0s,0.02s)
config sim-time-limit 20s
config **.routingRecorder.enabled false
config seed-set 0
config **.sctp.**.scalar-recording false
config **.sctp.**.vector-recording false
config **.vector-recording true
config output-scalar-file "results/MultiCell-CBR-UL/$u=0, $numUe=10, $numUeApps=2-0.sca"
config output-vector-file "results/MultiCell-CBR-UL/$u=0, $numUe=10, $numUeApps=2-0.vec"
config **.mobility.constraintAreaMinZ 0m
config **.mobility.constraintAreaMaxZ 0m
config **.mobility.initFromDisplayString false
config **.eNodeBTxPower 40dBm
config **.sctp.nagleEnabled false
config **.sctp.enableHeartbeats false
config **.downlinkInterference true
config **.uplinkInterference true
config **.enableHandover true
config **.fbPeriod 12tti
config **.targetBler 0.01
config **.blerShift 5
config *.configurator.config "xmldoc(\"./demo.xml\")"

scalar MultiCell_withSecondaryGnb.masterEnb1.x2App[0].client ums 1452
scalar MultiCell_withSecondaryGnb.masterEnb1.x2App[1].client ums 1452
scalar MultiCell_withSecondaryGnb.secondaryGnb1.x2App[0].client ums 1452
scalar MultiCell_withSecondaryGnb.masterEnb2.x2App[0].client ums 1452
scalar MultiCell_withSecondaryGnb.masterEnb2.x2App[1].client ums 1452
scalar MultiCell_withSecondaryGnb.secondaryGnb2.x2App[0].client ums 1452
scalar MultiCell_withSecondaryGnb.server.lo[0].lo rcvdPkFromHl:count 0
scalar MultiCell_withSecondaryGnb.server.lo[0].lo rcvdPkFromHl:sum(packetBytes) 0
scalar MultiCell_withSecondaryGnb.server.lo[0].lo passedUpPk:count 0
scalar MultiCell_withSecondaryGnb.server.lo[0].lo passedUpPk:sum(packetBytes) 0
scalar MultiCell_withSecondaryGnb.server.lo[0] packetDropInterfaceDown:count 0
scalar MultiCell_withSecondaryGnb.server.lo[0] packetDropInterfaceDown:sum(packetBytes) 0
scalar MultiCell_withSecondaryGnb.server.lo[0] packetDropNoCarrier:count 0
scalar MultiCell_withSecondaryGnb.server.lo[0] packetDropNoCarrier:sum(packetBytes) 0
scalar MultiCell_withSecondaryGnb.server.ppp[0].queue queueLength:last 0
scalar MultiCell_withSecondaryGnb.server.ppp[0].queue queueLength:max 0
scalar MultiCell_withSecondaryGnb.server.ppp[0].queue queueLength:timeavg 0
scalar MultiCell_withSecondaryGnb.server.ppp[0].queue queueBitLength:last 0
scalar MultiCell_withSecondaryGnb.server.ppp[0].queue queueBitLength:max 0
scalar MultiCell_withSecondaryGnb.server.ppp[0].queue queueBitLength:timeavg 0
scalar MultiCell_withSecondaryGnb.server.ppp[0].queue outgoingPackets:count 0
scalar MultiCell_withSecondaryGnb.server.ppp[0].queue outgoingPacketLengths:sum 0
scalar MultiCell_withSecondaryGnb.server.ppp[0].queue incomingPackets:count 0
scalar MultiCell_withSecondaryGnb.server.ppp[0].queue incomingPacketLengths:sum 0
scalar MultiCell_withSecondaryGnb.server.ppp[0].queue droppedPacketsQueueOverflow:count 0
scalar MultiCell_withSecondaryGnb.server.ppp[0].queue droppedPacketLengthsQueueOverflow:sum 0
scalar MultiCell_withSecondaryGnb.server.ppp[0].ppp transmissionState:timeavg 0
scalar MultiCell_withSecondaryGnb.server.ppp[0].ppp rxPkOk:count 49713
scalar MultiCell_withSecondaryGnb.server.ppp[0].ppp rxPkOk:sum(packetBytes) 3728475
scalar MultiCell_withSecondaryGnb.server.ppp[0].ppp txPk:count 0
scalar MultiCell_withSecondaryGnb.server.ppp[0].ppp txPk:sum(packetBytes) 0
scalar MultiCell_withSecondaryGnb.server.ppp[0].ppp rcvdPkFromHl:count 0
scalar MultiCell_withSecondaryGnb.server.ppp[0].ppp rcvdPkFromHl:sum(packetBytes) 0
scalar MultiCell_withSecondaryGnb.server.ppp[0].ppp passedUpPk:count 49713
scalar MultiCell_withSecondaryGnb.server.ppp[0].ppp passedUpPk:sum(packetBytes) 3380484
scalar MultiCell_withSecondaryGnb.server.ppp[0].ppp packetDropIncorrectlyReceived:count 0
scalar MultiCell_withSecondaryGnb.server.ppp[0].ppp packetDropIncorrectlyReceived:sum(packetBytes) 0
scalar MultiCell_withSecondaryGnb.server.ppp[0].ppp packetDropInterfaceDown:count 0
scalar MultiCell_withSecondaryGnb.server.ppp[0].ppp packetDropInterfaceDown:sum(packetBytes) 0
scalar MultiCell_withSecondaryGnb.server.ppp[0] packetDropInterfaceDown:count 0
scalar MultiCell_withSecondaryGnb.server.ppp[0] packetDropInterfaceDown:sum(packetBytes) 0
scalar MultiCell_withSecondaryGnb.server.ppp[0] packetDropNoCarrier:count 0
scalar MultiCell_withSecondaryGnb.server.ppp[0] packetDropNoCarrier:sum(packetBytes) 0
scalar MultiCell_withSecondaryGnb.server.ipv4.ip packetDropAddressResolutionFailed:count 0
scalar MultiCell_withSecondaryGnb.server.ipv4.ip packetDropAddressResolutionFailed:sum(packetBytes) 0
scalar MultiCell_withSecondaryGnb.server.ipv4.ip packetDropHopLimitReached:count 0
scalar MultiCell_withSecondaryGnb.server.ipv4.ip packetDropHopLimitReached:sum(packetBytes) 0
scalar MultiCell_withSecondaryGnb.server.ipv4.ip packetDropForwardingDisabled:count 0
scalar MultiCell_withSecondaryGnb.server.ipv4.ip packetDropForwardingDisabled:sum(packetBytes) 0
scalar MultiCell_withSecondaryGnb.server.ipv4.ip packetDropNoInterfaceFound:count 0
scalar MultiCell_withSecondaryGnb.server.ipv4.ip packetDropNoInterfaceFound:sum(packetBytes) 0
scalar MultiCell_withSecondaryGnb.server.ipv4.ip packetDropNoRouteFound:count 0
scalar MultiCell_withSecondaryGnb.server.ipv4.ip packetDropNoRouteFound:sum(packetBytes) 0
scalar MultiCell_withSecondaryGnb.server.ipv4.ip packetDropUndefined:count 0
scalar MultiCell_withSecondaryGnb.server.ipv4.ip packetDropUndefined:sum(packetBytes) 0
scalar MultiCell_withSecondaryGnb.server.ipv4.arp arpResolutionFailed:count 0
scalar MultiCell_withSecondaryGnb.server.ipv4.arp arpResolutionCompleted:count 0
scalar MultiCell_withSecondaryGnb.server.ipv4.arp arpResolutionInitiated:count 0
scalar MultiCell_withSecondaryGnb.server.ipv4.arp arpReplySent:count 0
scalar MultiCell_withSecondaryGnb.server.ipv4.arp arpReplySent:sum(packetBytes) 0
scalar MultiCell_withSecondaryGnb.server.ipv4.arp arpRequestSent:count 0
scalar MultiCell_withSecondaryGnb.server.ipv4.arp arpRequestSent:sum(packetBytes) 0
scalar MultiCell_withSecondaryGnb.server.udp packetReceived:count 49713
scalar MultiCell_withSecondaryGnb.server.udp packetReceived:sum(packetBytes) 2386224
scalar MultiCell_withSecondaryGnb.server.udp packetSent:count 0
scalar MultiCell_withSecondaryGnb.server.udp packetSent:sum(packetBytes) 0
scalar MultiCell_withSecondaryGnb.server.udp passedUpPk:count 49713
scalar MultiCell_withSecondaryGnb.server.udp droppedPkWrongPort:count 0
scalar MultiCell_withSecondaryGnb.server.udp droppedPkBadChecksum:count 0
scalar MultiCell_withSecondaryGnb.server.app[0] cbrReceivedBytes:mean 40
scalar MultiCell_withSecondaryGnb.server.app[0] cbrReceivedBytes:sum 99400
scalar MultiCell_withSecondaryGnb.server.app[0] cbrReceivedThroughput:simu5g_rateavg 1988
scalar MultiCell_withSecondaryGnb.server.app[0] cbrJitter:mean -nan
scalar MultiCell_withSecondaryGnb.server.app[0] cbrFrameDelay:mean 0.030894105375710093
scalar MultiCell_withSecondaryGnb.server.app[0] cbrFrameLoss:mean 0
scalar MultiCell_withSecondaryGnb.server.app[1] cbrReceivedBytes:mean 40
scalar MultiCell_withSecondaryGnb.server.app[1] cbrReceivedBytes:sum 99000
scalar MultiCell_withSecondaryGnb.server.app[1] cbrReceivedThroughput:simu5g_rateavg 1980
scalar MultiCell_withSecondaryGnb.server.app[1] cbrJitter:mean -nan
scalar MultiCell_withSecondaryGnb.server.app[1] cbrFrameDelay:mean 0.03971861915435386
scalar MultiCell_withSecondaryGnb.server.app[1] cbrFrameLoss:mean 0
scalar MultiCell_withSecondaryGnb.server.app[2] cbrReceivedBytes:mean 40
scalar MultiCell_withSecondaryGnb.server.app[2] cbrReceivedBytes:sum 98960
scalar MultiCell_withSecondaryGnb.server.app[2] cbrReceivedThroughput:simu5g_rateavg 1979.2
scalar MultiCell_withSecondaryGnb.server.app[2] cbrJitter:mean -nan
scalar MultiCell_withSecondaryGnb.server.app[2] cbrFrameDelay:mean 0.062231599386161587
scalar MultiCell_withSecondaryGnb.server.app[2] cbrFrameLoss:mean 0
scalar MultiCell_withSecondaryGnb.server.app[3] cbrReceivedBytes:mean 40
scalar MultiCell_withSecondaryGnb.server.app[3] cbrReceivedBytes:sum 98840
scalar MultiCell_withSecondaryGnb.server.app[3] cbrReceivedThroughput:simu5g_rateavg 1976.8
scalar MultiCell_withSecondaryGnb.server.app[3] cbrJitter:mean -nan
scalar MultiCell_withSecondaryGnb.server.app[3] cbrFrameDelay:mean 0.052742365205331404
scalar MultiCell_withSecondaryGnb.server.app[3] cbrFrameLoss:mean 0
scalar MultiCell_withSecondaryGnb.server.app[4] cbrReceivedBytes:mean 40
scalar MultiCell_withSecondaryGnb.server.app[4] cbrReceivedBytes:sum 98880
scalar MultiCell_withSecondaryGnb.server.app[4] cbrReceivedThroughput:simu5g_rateavg 1977.5999999999999
scalar MultiCell_withSecondaryGnb.server.app[4] cbrJitter:mean -nan
scalar MultiCell_withSecondaryGnb.server.app[4] cbrFrameDelay:mean 0.066482097952993202
scalar MultiCell_withSecondaryGnb.server.app[4] cbrFrameLoss:mean 0
scalar MultiCell_withSecondaryGnb.server.app[5] cbrReceivedBytes:mean 40
scalar MultiCell_withSecondaryGnb.server.app[5] cbrReceivedBytes:sum 99320
scalar MultiCell_withSecondaryGnb.server.app[5] cbrReceivedThroughput:simu5g_rateavg 1986.4000000000001
scalar MultiCell_withSecondaryGnb.server.app[5] cbrJitter:mean -nan
scalar MultiCell_withSecondaryGnb.server.app[5] cbrFrameDelay:mean 0.061722356595240987
scalar MultiCell_withSecondaryGnb.server.app[5] cbrFrameLoss:mean 0
scalar MultiCell_withSecondaryGnb.server.app[6] cbrReceivedBytes:mean 40
scalar MultiCell_withSecondaryGnb.server.app[6] cbrReceivedBytes:sum 99080
scalar MultiCell_withSecondaryGnb.server.app[6] cbrReceivedThroughput:simu5g_rateavg 1981.5999999999999
scalar MultiCell_withSecondaryGnb.server.app[6] cbrJitter:mean -nan
scalar MultiCell_withSecondaryGnb.server.app[6] cbrFrameDelay:mean 0.045822708101573136
scalar MultiCell_withSecondaryGnb.server.app[6] cbrFrameLoss:mean 0
scalar MultiCell_withSecondaryGnb.server.app[7] cbrReceivedBytes:mean 40
scalar MultiCell_withSecondaryGnb.server.app[7] cbrReceivedBytes:sum 98960
scalar MultiCell_withSecondaryGnb.server.app[7] cbrReceivedThroughput:simu5g_rateavg 1979.2
scalar MultiCell_withSecondaryGnb.server.app[7] cbrJitter:mean -nan
scalar MultiCell_withSecondaryGnb.server.app[7] cbrFrameDelay:mean 0.029608324702836017
scalar MultiCell_withSecondaryGnb.server.app[7] cbrFrameLoss:mean 0
scalar MultiCell_withSecondaryGnb.server.app[8] cbrReceivedBytes:mean 40
scalar MultiCell_withSecondaryGnb.server.app[8] cbrReceivedBytes:sum 97960
scalar MultiCell_withSecondaryGnb.server.app[8] cbrReceivedThroughput:simu5g_rateavg 1959.2
scalar MultiCell_withSecondaryGnb.server.app[8] cbrJitter:mean -nan
scalar MultiCell_withSecondaryGnb.server.app[8] cbrFrameDelay:mean 0.060057577907076928
scalar MultiCell_withSecondaryGnb.server.app[8] cbrFrameLoss:mean 0
scalar MultiCell_withSecondaryGnb.server.app[9] cbrReceivedBytes:mean 40
scalar MultiCell_withSecondaryGnb.server.app[9] cbrReceivedBytes:sum 99560
scalar MultiCell_withSecondaryGnb.server.app[9] cbrReceivedThroughput:simu5g_rateavg 1991.2
scalar MultiCell_withSecondaryGnb.server.app[9] cbrJitter:mean -nan
scalar MultiCell_withSecondaryGnb.server.app[9] cbrFrameDelay:mean 0.035680912798546051
scalar MultiCell_withSecondaryGnb.server.app[9] cbrFrameLoss:mean 0
scalar MultiCell_withSecondaryGnb.server.app[10] cbrReceivedBytes:mean 40
scalar MultiCell_withSecondaryGnb.server.app[10] cbrReceivedBytes:sum 99840
scalar MultiCell_withSecondaryGnb.server.app[10] cbrReceivedThroughput:simu5g_rateavg 1996.8
scalar MultiCell_withSecondaryGnb.server.app[10] cbrJitter:mean -nan
scalar MultiCell_withSecondaryGnb.server.app[10] cbrFrameDelay:mean 0.014480043962192938
scalar MultiCell_withSecondaryGnb.server.app[10] cbrFrameLoss:mean 0
scalar MultiCell_withSecondaryGnb.server.app[11] cbrReceivedBytes:mean 40
scalar MultiCell_withSecondaryGnb.server.app[11] cbrReceivedBytes:sum 99920
scalar MultiCell_withSecondaryGnb.server.app[11] cbrReceivedThroughput:simu5g_rateavg 1998.4000000000001
scalar MultiCell_withSecondaryGnb.server.app[11] cbrJitter:mean -nan
scalar MultiCell_withSecondaryGnb.server.app[11] cbrFrameDelay:mean 0.017151355191674902
scalar MultiCell_withSecondaryGnb.server.app[11] cbrFrameLoss:mean 0
scalar MultiCell_withSecondaryGnb.server.app[12] cbrReceivedBytes:mean 40
scalar MultiCell_withSecondaryGnb.server.app[12] cbrReceivedBytes:sum 99800
scalar MultiCell_withSecondaryGnb.server.app[12] cbrReceivedThroughput:simu5g_rateavg 1996
scalar MultiCell_withSecondaryGnb.server.app[12] cbrJitter:mean -nan
scalar MultiCell_withSecondaryGnb.server.app[12] cbrFrameDelay:mean 0.045434298124322717
scalar MultiCell_withSecondaryGnb.server.app[12] cbrFrameLoss:mean 0
scalar MultiCell_withSecondaryGnb.server.app[13] cbrReceivedBytes:mean 40
scalar MultiCell_withSecondaryGnb.server.app[13] cbrReceivedBytes:sum 99960
scalar MultiCell_withSecondaryGnb.server.app[13] cbrReceivedThroughput:simu5g_rateavg 1999.2
scalar MultiCell_withSecondaryGnb.server.app[13] cbrJitter:mean -nan
scalar MultiCell_withSecondaryGnb.server.app[13] cbrFrameDelay:mean 0.017325569263641552
scalar MultiCell_withSecondaryGnb.server.app[13] cbrFrameLoss:mean 0
scalar MultiCell_withSecondaryGnb.server.app[14] cbrReceivedBytes:mean 40
scalar MultiCell_withSecondaryGnb.server.app[14] cbrReceivedBytes:sum 99720
scalar MultiCell_withSecondaryGnb.server.app[14] cbrReceivedThroughput:simu5g_rateavg 1994.4000000000001
scalar MultiCell_withSecondaryGnb.server.app[14] cbrJitter:mean -nan
scalar MultiCell_withSecondaryGnb.server.app[14] cbrFrameDelay:mean 0.020907444600357487
scalar MultiCell_withSecondaryGnb.server.app[14] cbrFrameLoss:mean 0
scalar MultiCell_withSecondaryGnb.server.app[15] cbrReceivedBytes:mean 40
scalar MultiCell_withSecondaryGnb.server.app[15] cbrReceivedBytes:sum 99920
scalar MultiCell_withSecondaryGnb.server.app[15] cbrReceivedThroughput:simu5g_rateavg 1998.4000000000001
scalar MultiCell_withSecondaryGnb.server.app[15] cbrJitter:mean -nan
scalar MultiCell_withSecondaryGnb.server.app[15] cbrFrameDelay:mean 0.017340520808850981
scalar MultiCell_withSecondaryGnb.server.app[15] cbrFrameLoss:mean 0
scalar MultiCell_withSecondaryGnb.server.app[16] cbrReceivedBytes:mean 40
scalar MultiCell_withSecondaryGnb.server.app[16] cbrReceivedBytes:sum 99960
scalar MultiCell_withSecondaryGnb.server.app[16] cbrReceivedThroughput:simu5g_rateavg 1999.2
scalar MultiCell_withSecondaryGnb.server.app[16] cbrJitter:mean -nan
scalar MultiCell_withSecondaryGnb.server.app[16] cbrFrameDelay:mean 0.016911506488158597
scalar MultiCell_withSecondaryGnb.server.app[16] cbrFrameLoss:mean 0
scalar MultiCell_withSecondaryGnb.server.app[17] cbrReceivedBytes:mean 40
scalar MultiCell_withSecondaryGnb.server.app[17] cbrReceivedBytes:sum 99800
scalar MultiCell_withSecondaryGnb.server.app[17] cbrReceivedThroughput:simu5g_rateavg 1996
scalar MultiCell_withSecondaryGnb.server.app[17] cbrJitter:mean -nan
scalar MultiCell_withSecondaryGnb.server.app[17] cbrFrameDelay:mean 0.02119638333897585
scalar MultiCell_withSecondaryGnb.server.app[17] cbrFrameLoss:mean 0
scalar MultiCell_withSecondaryGnb.server.app[18] cbrReceivedBytes:mean 40
scalar MultiCell_withSecondaryGnb.server.app[18] cbrReceivedBytes:sum 99680
scalar MultiCell_withSecondaryGnb.server.app[18] cbrReceivedThroughput:simu5g_rateavg 1993.5999999999999
scalar MultiCell_withSecondaryGnb.server.app[18] cbrJitter:mean -nan
scalar MultiCell_withSecondaryGnb.server.app[18] cbrFrameDelay:mean 0.020831853315059479
scalar MultiCell_withSecondaryGnb.server.app[18] cbrFrameLoss:mean 0
scalar MultiCell_withSecondaryGnb.server.app[19] cbrReceivedBytes:mean 40
scalar MultiCell_withSecondaryGnb.server.app[19] cbrReceivedBytes:sum 99960
scalar MultiCell_withSecondaryGnb.server.app[19] cbrReceivedThroughput:simu5g_rateavg 1999.2
scalar MultiCell_withSecondaryGnb.server.app[19] cbrJitter:mean -nan
scalar MultiCell_withSecondaryGnb.server.app[19] cbrFrameDelay:mean 0.01852077392318064
scalar MultiCell_withSecondaryGnb.server.app[19] cbrFrameLoss:mean 0
scalar MultiCell_withSecondaryGnb.router.lo[0].lo rcvdPkFromHl:count 0
scalar MultiCell_withSecondaryGnb.router.lo[0].lo rcvdPkFromHl:sum(packetBytes) 0
scalar MultiCell_withSecondaryGnb.router.lo[0].lo passedUpPk:count 0
scalar MultiCell_withSecondaryGnb.router.lo[0].lo passedUpPk:sum(packetBytes) 0
scalar MultiCell_withSecondaryGnb.router.lo[0] packetDropInterfaceDown:count 0
scalar MultiCell_withSecondaryGnb.router.lo[0] packetDropInterfaceDown:sum(packetBytes) 0
scalar MultiCell_withSecondaryGnb.router.lo[0] packetDropNoCarrier:count 0
scalar MultiCell_withSecondaryGnb.router.lo[0] packetDropNoCarrier:sum(packetBytes) 0
scalar MultiCell_withSecondaryGnb.router.ppp[0].queue queueLength:last 0
scalar MultiCell_withSecondaryGnb.router.ppp[0].queue queueLength:max 0
scalar MultiCell_withSecondaryGnb.router.ppp[0].queue queueLength:timeavg 0
scalar MultiCell_withSecondaryGnb.router.ppp[0].queue queueBitLength:last 0
scalar MultiCell_withSecondaryGnb.router.ppp[0].queue queueBitLength:max 0
scalar MultiCell_withSecondaryGnb.router.ppp[0].queue queueBitLength:timeavg 0
scalar MultiCell_withSecondaryGnb.router.ppp[0].queue outgoingPackets:count 49713
scalar MultiCell_withSecondaryGnb.router.ppp[0].queue outgoingPacketLengths:sum 27043872
scalar MultiCell_withSecondaryGnb.router.ppp[0].queue incomingPackets:count 49713
scalar MultiCell_withSecondaryGnb.router.ppp[0].queue incomingPacketLengths:sum 27043872
scalar MultiCell_withSecondaryGnb.router.ppp[0].queue droppedPacketsQueueOverflow:count 0
scalar MultiCell_withSecondaryGnb.router.ppp[0].queue droppedPacketLengthsQueueOverflow:sum 0
scalar MultiCell_withSecondaryGnb.router.ppp[0].ppp transmissionState:timeavg 5.965560000004834e-05
scalar MultiCell_withSecondaryGnb.router.ppp[0].ppp rxPkOk:count 0
scalar MultiCell_withSecondaryGnb.router.ppp[0].ppp rxPkOk:sum(packetBytes) 0
scalar MultiCell_withSecondaryGnb.router.ppp[0].ppp txPk:count 49713
scalar MultiCell_withSecondaryGnb.router.ppp[0].ppp txPk:sum(packetBytes) 3728475
scalar MultiCell_withSecondaryGnb.router.ppp[0].ppp rcvdPkFromHl:count 49713
scalar MultiCell_withSecondaryGnb.router.ppp[0].ppp rcvdPkFromHl:sum(packetBytes) 3380484
scalar MultiCell_withSecondaryGnb.router.ppp[0].ppp passedUpPk:count 0
scalar MultiCell_withSecondaryGnb.router.ppp[0].ppp passedUpPk:sum(packetBytes) 0
scalar MultiCell_withSecondaryGnb.router.ppp[0].ppp packetDropIncorrectlyReceived:count 0
scalar MultiCell_withSecondaryGnb.router.ppp[0].ppp packetDropIncorrectlyReceived:sum(packetBytes) 0
scalar MultiCell_withSecondaryGnb.router.ppp[0].ppp packetDropInterfaceDown:count 0
scalar MultiCell_withSecondaryGnb.router.ppp[0].ppp packetDropInterfaceDown:sum(packetBytes) 0
scalar MultiCell_withSecondaryGnb.router.ppp[0] packetDropInterfaceDown:count 0
scalar MultiCell_withSecondaryGnb.router.ppp[0] packetDropInterfaceDown:sum(packetBytes) 0
scalar MultiCell_withSecondaryGnb.router.ppp[0] packetDropNoCarrier:count 0
scalar MultiCell_withSecondaryGnb.router.ppp[0] packetDropNoCarrier:sum(packetBytes) 0
scalar MultiCell_withSecondaryGnb.router.ppp[1].queue queueLength:last 0
scalar MultiCell_withSecondaryGnb.router.ppp[1].queue queueLength:max 0
scalar MultiCell_withSecondaryGnb.router.ppp[1].queue queueLength:timeavg 0
scalar MultiCell_withSecondaryGnb.router.ppp[1].queue queueBitLength:last 0
scalar MultiCell_withSecondaryGnb.router.ppp[1].queue queueBitLength:max 0
scalar MultiCell_withSecondaryGnb.router.ppp[1].queue queueBitLength:timeavg 0
scalar MultiCell_withSecondaryGnb.router.ppp[1].queue outgoingPackets:count 0
scalar MultiCell_withSecondaryGnb.router.ppp[1].queue outgoingPacketLengths:sum 0
scalar MultiCell_withSecondaryGnb.router.ppp[1].queue incomingPackets:count 0
scalar MultiCell_withSecondaryGnb.router.ppp[1].queue incomingPacketLengths:sum 0
scalar MultiCell_withSecondaryGnb.router.ppp[1].queue droppedPacketsQueueOverflow:count 0
scalar MultiCell_withSecondaryGnb.router.ppp[1].queue droppedPacketLengthsQueueOverflow:sum 0
scalar MultiCell_withSecondaryGnb.router.ppp[1].ppp transmissionState:timeavg 0
scalar MultiCell_withSecondaryGnb.router.ppp[1].ppp rxPkOk:count 49713
scalar MultiCell_withSecondaryGnb.router.ppp[1].ppp rxPkOk:sum(packetBytes) 3728475
scalar MultiCell_withSecondaryGnb.router.ppp[1].ppp txPk:count 0
scalar MultiCell_withSecondaryGnb.router.ppp[1].ppp txPk:sum(packetBytes) 0
scalar MultiCell_withSecondaryGnb.router.ppp[1].ppp rcvdPkFromHl:count 0
scalar MultiCell_withSecondaryGnb.router.ppp[1].ppp rcvdPkFromHl:sum(packetBytes) 0
scalar MultiCell_withSecondaryGnb.router.ppp[1].ppp passedUpPk:count 49713
scalar MultiCell_withSecondaryGnb.router.ppp[1].ppp passedUpPk:sum(packetBytes) 3380484
scalar MultiCell_withSecondaryGnb.router.ppp[1].ppp packetDropIncorrectlyReceived:count 0
scalar MultiCell_withSecondaryGnb.router.ppp[1].ppp packetDropIncorrectlyReceived:sum(packetBytes) 0
scalar MultiCell_withSecondaryGnb.router.ppp[1].ppp packetDropInterfaceDown:count 0
scalar MultiCell_withSecondaryGnb.router.ppp[1].ppp packetDropInterfaceDown:sum(packetBytes) 0
scalar MultiCell_withSecondaryGnb.router.ppp[1] packetDropInterfaceDown:count 0
scalar MultiCell_withSecondaryGnb.router.ppp[1] packetDropInterfaceDown:sum(packetBytes) 0
scalar MultiCell_withSecondaryGnb.router.ppp[1] packetDropNoCarrier:count 0
scalar MultiCell_withSecondaryGnb.router.ppp[1] packetDropNoCarrier:sum(packetBytes) 0
scalar MultiCell_withSecondaryGnb.router.ipv4.ip packetDropAddressResolutionFailed:count 0
scalar MultiCell_withSecondaryGnb.router.ipv4.ip packetDropAddressResolutionFailed:sum(packetBytes) 0
scalar MultiCell_withSecondaryGnb.router.ipv4.ip packetDropHopLimitReached:count 0
scalar MultiCell_withSecondaryGnb.router.ipv4.ip packetDropHopLimitReached:sum(packetBytes) 0
scalar MultiCell_withSecondaryGnb.router.ipv4.ip packetDropForwardingDisabled:count 0
scalar MultiCell_withSecondaryGnb.router.ipv4.ip packetDropForwardingDisabled:sum(packetBytes) 0
scalar MultiCell_withSecondaryGnb.router.ipv4.ip packetDropNoInterfaceFound:count 0
scalar MultiCell_withSecondaryGnb.router.ipv4.ip packetDropNoInterfaceFound:sum(packetBytes) 0
scalar MultiCell_withSecondaryGnb.router.ipv4.ip packetDropNoRouteFound:count 0
scalar MultiCell_withSecondaryGnb.router.ipv4.ip packetDropNoRouteFound:sum(packetBytes) 0
scalar MultiCell_withSecondaryGnb.router.ipv4.ip packetDropUndefined:count 0
scalar MultiCell_withSecondaryGnb.router.ipv4.ip packetDropUndefined:sum(packetBytes) 0
scalar MultiCell_withSecondaryGnb.router.ipv4.arp arpResolutionFailed:count 0
scalar MultiCell_withSecondaryGnb.router.ipv4.arp arpResolutionCompleted:count 0
scalar MultiCell_withSecondaryGnb.router.ipv4.arp arpResolutionInitiated:count 0
scalar MultiCell_withSecondaryGnb.router.ipv4.arp arpReplySent:count 0
scalar MultiCell_withSecondaryGnb.router.ipv4.arp arpReplySent:sum(packetBytes) 0
scalar MultiCell_withSecondaryGnb.router.ipv4.arp arpRequestSent:count 0
scalar MultiCell_withSecondaryGnb.router.ipv4.arp arpRequestSent:sum(packetBytes) 0
scalar MultiCell_withSecondaryGnb.pgw.lo[0].lo rcvdPkFromHl:count 0
scalar MultiCell_withSecondaryGnb.pgw.lo[0].lo rcvdPkFromHl:sum(packetBytes) 0
scalar MultiCell_withSecondaryGnb.pgw.lo[0].lo passedUpPk:count 0
scalar MultiCell_withSecondaryGnb.pgw.lo[0].lo passedUpPk:sum(packetBytes) 0
scalar MultiCell_withSecondaryGnb.pgw.lo[0] packetDropInterfaceDown:count 0
scalar MultiCell_withSecondaryGnb.pgw.lo[0] packetDropInterfaceDown:sum(packetBytes) 0
scalar MultiCell_withSecondaryGnb.pgw.lo[0] packetDropNoCarrier:count 0
scalar MultiCell_withSecondaryGnb.pgw.lo[0] packetDropNoCarrier:sum(packetBytes) 0
scalar MultiCell_withSecondaryGnb.pgw.ppp[0].queue queueLength:last 0
scalar MultiCell_withSecondaryGnb.pgw.ppp[0].queue queueLength:max 0
scalar MultiCell_withSecondaryGnb.pgw.ppp[0].queue queueLength:timeavg 0
scalar MultiCell_withSecondaryGnb.pgw.ppp[0].queue queueBitLength:last 0
scalar MultiCell_withSecondaryGnb.pgw.ppp[0].queue queueBitLength:max 0
scalar MultiCell_withSecondaryGnb.pgw.ppp[0].queue queueBitLength:timeavg 0
scalar MultiCell_withSecondaryGnb.pgw.ppp[0].queue outgoingPackets:count 0
scalar MultiCell_withSecondaryGnb.pgw.ppp[0].queue outgoingPacketLengths:sum 0
scalar MultiCell_withSecondaryGnb.pgw.ppp[0].queue incomingPackets:count 0
scalar MultiCell_withSecondaryGnb.pgw.ppp[0].queue incomingPacketLengths:sum 0
scalar MultiCell_withSecondaryGnb.pgw.ppp[0].queue droppedPacketsQueueOverflow:count 0
scalar MultiCell_withSecondaryGnb.pgw.ppp[0].queue droppedPacketLengthsQueueOverflow:sum 0
scalar MultiCell_withSecondaryGnb.pgw.ppp[0].ppp transmissionState:timeavg 0
scalar MultiCell_withSecondaryGnb.pgw.ppp[0].ppp rxPkOk:count 24340
scalar MultiCell_withSecondaryGnb.pgw.ppp[0].ppp rxPkOk:sum(packetBytes) 2701740
scalar MultiCell_withSecondaryGnb.pgw.ppp[0].ppp txPk:count 0
scalar MultiCell_withSecondaryGnb.pgw.ppp[0].ppp txPk:sum(packetBytes) 0
scalar MultiCell_withSecondaryGnb.pgw.ppp[0].ppp rcvdPkFromHl:count 0
scalar MultiCell_withSecondaryGnb.pgw.ppp[0].ppp rcvdPkFromHl:sum(packetBytes) 0
scalar MultiCell_withSecondaryGnb.pgw.ppp[0].ppp passedUpPk:count 24340
scalar MultiCell_withSecondaryGnb.pgw.ppp[0].ppp passedUpPk:sum(packetBytes) 2531360
scalar MultiCell_withSecondaryGnb.pgw.ppp[0].ppp packetDropIncorrectlyReceived:count 0
scalar MultiCell_withSecondaryGnb.pgw.ppp[0].ppp packetDropIncorrectlyReceived:sum(packetBytes) 0
scalar MultiCell_withSecondaryGnb.pgw.ppp[0].ppp packetDropInterfaceDown:count 0
scalar MultiCell_withSecondaryGnb.pgw.ppp[0].ppp packetDropInterfaceDown:sum(packetBytes) 0
scalar MultiCell_withSecondaryGnb.pgw.ppp[0] packetDropInterfaceDown:count 0
scalar MultiCell_withSecondaryGnb.pgw.ppp[0] packetDropInterfaceDown:sum(packetBytes) 0
scalar MultiCell_withSecondaryGnb.pgw.ppp[0] packetDropNoCarrier:count 0
scalar MultiCell_withSecondaryGnb.pgw.ppp[0] packetDropNoCarrier:sum(packetBytes) 0
scalar MultiCell_withSecondaryGnb.pgw.ppp[1].queue queueLength:last 0
scalar MultiCell_withSecondaryGnb.pgw.ppp[1].queue queueLength:max 0
scalar MultiCell_withSecondaryGnb.pgw.ppp[1].queue queueLength:timeavg 0
scalar MultiCell_withSecondaryGnb.pgw.ppp[1].queue queueBitLength:last 0
scalar MultiCell_withSecondaryGnb.pgw.ppp[1].queue queueBitLength:max 0
scalar MultiCell_withSecondaryGnb.pgw.ppp[1].queue queueBitLength:timeavg 0
scalar MultiCell_withSecondaryGnb.pgw.ppp[1].queue outgoingPackets:count 0
scalar MultiCell_withSecondaryGnb.pgw.ppp[1].queue outgoingPacketLengths:sum 0
scalar MultiCell_withSecondaryGnb.pgw.ppp[1].queue incomingPackets:count 0
scalar MultiCell_withSecondaryGnb.pgw.ppp[1].queue incomingPacketLengths:sum 0
scalar MultiCell_withSecondaryGnb.pgw.ppp[1].queue droppedPacketsQueueOverflow:count 0
scalar MultiCell_withSecondaryGnb.pgw.ppp[1].queue droppedPacketLengthsQueueOverflow:sum 0
scalar MultiCell_withSecondaryGnb.pgw.ppp[1].ppp transmissionState:timeavg 0
scalar MultiCell_withSecondaryGnb.pgw.ppp[1].ppp rxPkOk:count 25373
scalar MultiCell_withSecondaryGnb.pgw.ppp[1].ppp rxPkOk:sum(packetBytes) 2816403
scalar MultiCell_withSecondaryGnb.pgw.ppp[1].ppp txPk:count 0
scalar MultiCell_withSecondaryGnb.pgw.ppp[1].ppp txPk:sum(packetBytes) 0
scalar MultiCell_withSecondaryGnb.pgw.ppp[1].ppp rcvdPkFromHl:count 0
scalar MultiCell_withSecondaryGnb.pgw.ppp[1].ppp rcvdPkFromHl:sum(packetBytes) 0
scalar MultiCell_withSecondaryGnb.pgw.ppp[1].ppp passedUpPk:count 25373
scalar MultiCell_withSecondaryGnb.pgw.ppp[1].ppp passedUpPk:sum(packetBytes) 2638792
scalar MultiCell_withSecondaryGnb.pgw.ppp[1].ppp packetDropIncorrectlyReceived:count 0
scalar MultiCell_withSecondaryGnb.pgw.ppp[1].ppp packetDropIncorrectlyReceived:sum(packetBytes) 0
scalar MultiCell_withSecondaryGnb.pgw.ppp[1].ppp packetDropInterfaceDown:count 0
scalar MultiCell_withSecondaryGnb.pgw.ppp[1].ppp packetDropInterfaceDown:sum(packetBytes) 0
scalar MultiCell_withSecondaryGnb.pgw.ppp[1] packetDropInterfaceDown:count 0
scalar MultiCell_withSecondaryGnb.pgw.ppp[1] packetDropInterfaceDown:sum(packetBytes) 0
scalar MultiCell_withSecondaryGnb.pgw.ppp[1] packetDropNoCarrier:count 0
scalar MultiCell_withSecondaryGnb.pgw.ppp[1] packetDropNoCarrier:sum(packetBytes) 0
scalar MultiCell_withSecondaryGnb.pgw.ipv4.ip packetDropAddressResolutionFailed:count 0
scalar MultiCell_withSecondaryGnb.pgw.ipv4.ip packetDropAddressResolutionFailed:sum(packetBytes) 0
scalar MultiCell_withSecondaryGnb.pgw.ipv4.ip packetDropHopLimitReached:count 0
scalar MultiCell_withSecondaryGnb.pgw.ipv4.ip packetDropHopLimitReached:sum(packetBytes) 0
scalar MultiCell_withSecondaryGnb.pgw.ipv4.ip packetDropForwardingDisabled:count 0
scalar MultiCell_withSecondaryGnb.pgw.ipv4.ip packetDropForwardingDisabled:sum(packetBytes) 0
scalar MultiCell_withSecondaryGnb.pgw.ipv4.ip packetDropNoInterfaceFound:count 0
scalar MultiCell_withSecondaryGnb.pgw.ipv4.ip packetDropNoInterfaceFound:sum(packetBytes) 0
scalar MultiCell_withSecondaryGnb.pgw.ipv4.ip packetDropNoRouteFound:count 0
scalar MultiCell_withSecondaryGnb.pgw.ipv4.ip packetDropNoRouteFound:sum(packetBytes) 0
scalar MultiCell_withSecondaryGnb.pgw.ipv4.ip packetDropUndefined:count 0
scalar MultiCell_withSecondaryGnb.pgw.ipv4.ip packetDropUndefined:sum(packetBytes) 0
scalar MultiCell_withSecondaryGnb.pgw.ipv4.arp arpResolutionFailed:count 0
scalar MultiCell_withSecondaryGnb.pgw.ipv4.arp arpResolutionCompleted:count 0
scalar MultiCell_withSecondaryGnb.pgw.ipv4.arp arpResolutionInitiated:count 0
scalar MultiCell_withSecondaryGnb.pgw.ipv4.arp arpReplySent:count 0
scalar MultiCell_withSecondaryGnb.pgw.ipv4.arp arpReplySent:sum(packetBytes) 0
scalar MultiCell_withSecondaryGnb.pgw.ipv4.arp arpRequestSent:count 0
scalar MultiCell_withSecondaryGnb.pgw.ipv4.arp arpRequestSent:sum(packetBytes) 0
scalar MultiCell_withSecondaryGnb.pgw.pppIf.queue queueLength:last 0
scalar MultiCell_withSecondaryGnb.pgw.pppIf.queue queueLength:max 10
scalar MultiCell_withSecondaryGnb.pgw.pppIf.queue queueLength:timeavg 5.79015999999996e-06
scalar MultiCell_withSecondaryGnb.pgw.pppIf.queue queueBitLength:last 0
scalar MultiCell_withSecondaryGnb.pgw.pppIf.queue queueBitLength:max 5440
scalar MultiCell_withSecondaryGnb.pgw.pppIf.queue queueBitLength:timeavg 0.0031498470400000179
scalar MultiCell_withSecondaryGnb.pgw.pppIf.queue outgoingPackets:count 49713
scalar MultiCell_withSecondaryGnb.pgw.pppIf.queue outgoingPacketLengths:sum 27043872
scalar MultiCell_withSecondaryGnb.pgw.pppIf.queue incomingPackets:count 49713
scalar MultiCell_withSecondaryGnb.pgw.pppIf.queue incomingPacketLengths:sum 27043872
scalar MultiCell_withSecondaryGnb.pgw.pppIf.queue droppedPacketsQueueOverflow:count 0
scalar MultiCell_withSecondaryGnb.pgw.pppIf.queue droppedPacketLengthsQueueOverflow:sum 0
scalar MultiCell_withSecondaryGnb.pgw.pppIf.ppp transmissionState:timeavg 5.965560000004834e-05
scalar MultiCell_withSecondaryGnb.pgw.pppIf.ppp rxPkOk:count 0
scalar MultiCell_withSecondaryGnb.pgw.pppIf.ppp rxPkOk:sum(packetBytes) 0
scalar MultiCell_withSecondaryGnb.pgw.pppIf.ppp txPk:count 49713
scalar MultiCell_withSecondaryGnb.pgw.pppIf.ppp txPk:sum(packetBytes) 3728475
scalar MultiCell_withSecondaryGnb.pgw.pppIf.ppp rcvdPkFromHl:count 49713
scalar MultiCell_withSecondaryGnb.pgw.pppIf.ppp rcvdPkFromHl:sum(packetBytes) 3380484
scalar MultiCell_withSecondaryGnb.pgw.pppIf.ppp passedUpPk:count 0
scalar MultiCell_withSecondaryGnb.pgw.pppIf.ppp passedUpPk:sum(packetBytes) 0
scalar MultiCell_withSecondaryGnb.pgw.pppIf.ppp packetDropIncorrectlyReceived:count 0
scalar MultiCell_withSecondaryGnb.pgw.pppIf.ppp packetDropIncorrectlyReceived:sum(packetBytes) 0
scalar MultiCell_withSecondaryGnb.pgw.pppIf.ppp packetDropInterfaceDown:count 0
scalar MultiCell_withSecondaryGnb.pgw.pppIf.ppp packetDropInterfaceDown:sum(packetBytes) 0
scalar MultiCell_withSecondaryGnb.pgw.pppIf packetDropInterfaceDown:count 0
scalar MultiCell_withSecondaryGnb.pgw.pppIf packetDropInterfaceDown:sum(packetBytes) 0
scalar MultiCell_withSecondaryGnb.pgw.pppIf packetDropNoCarrier:count 0
scalar MultiCell_withSecondaryGnb.pgw.pppIf packetDropNoCarrier:sum(packetBytes) 0
scalar MultiCell_withSecondaryGnb.pgw.udp packetReceived:count 49713
scalar MultiCell_withSecondaryGnb.pgw.udp packetReceived:sum(packetBytes) 4175892
scalar MultiCell_withSecondaryGnb.pgw.udp packetSent:count 0
scalar MultiCell_withSecondaryGnb.pgw.udp packetSent:sum(packetBytes) 0
scalar MultiCell_withSecondaryGnb.pgw.udp passedUpPk:count 49713
scalar MultiCell_withSecondaryGnb.pgw.udp droppedPkWrongPort:count 0
scalar MultiCell_withSecondaryGnb.pgw.udp droppedPkBadChecksum:count 0
scalar MultiCell_withSecondaryGnb.masterEnb1.cellularNic.pdcp sentPacketToLowerLayer:count 0
scalar MultiCell_withSecondaryGnb.masterEnb1.cellularNic.pdcp sentPacketToLowerLayer:sum(packetBytes) 0
scalar MultiCell_withSecondaryGnb.masterEnb1.cellularNic.pdcp sentPacketToUpperLayer:count 24340
scalar MultiCell_withSecondaryGnb.masterEnb1.cellularNic.pdcp sentPacketToUpperLayer:sum(packetBytes) 1655120
scalar MultiCell_withSecondaryGnb.masterEnb1.cellularNic.pdcp receivedPacketFromLowerLayer:count 24358
scalar MultiCell_withSecondaryGnb.masterEnb1.cellularNic.pdcp receivedPacketFromLowerLayer:sum(packetBytes) 1680702
scalar MultiCell_withSecondaryGnb.masterEnb1.cellularNic.pdcp receivedPacketFromUpperLayer:count 0
scalar MultiCell_withSecondaryGnb.masterEnb1.cellularNic.pdcp receivedPacketFromUpperLayer:sum(packetBytes) 0
scalar MultiCell_withSecondaryGnb.masterEnb1.cellularNic.rlc.tm rlcPacketLossUl:mean -nan
scalar MultiCell_withSecondaryGnb.masterEnb1.cellularNic.rlc.tm rlcPacketLossUl:sum 0
scalar MultiCell_withSecondaryGnb.masterEnb1.cellularNic.rlc.tm rlcPacketLossDl:mean -nan
scalar MultiCell_withSecondaryGnb.masterEnb1.cellularNic.rlc.tm rlcPacketLossDl:sum 0
scalar MultiCell_withSecondaryGnb.masterEnb1.cellularNic.rlc.tm sentPacketToLowerLayer:count 0
scalar MultiCell_withSecondaryGnb.masterEnb1.cellularNic.rlc.tm sentPacketToLowerLayer:sum(packetBytes) 0
scalar MultiCell_withSecondaryGnb.masterEnb1.cellularNic.rlc.tm sentPacketToUpperLayer:count 0
scalar MultiCell_withSecondaryGnb.masterEnb1.cellularNic.rlc.tm sentPacketToUpperLayer:sum(packetBytes) 0
scalar MultiCell_withSecondaryGnb.masterEnb1.cellularNic.rlc.tm receivedPacketFromLowerLayer:count 0
scalar MultiCell_withSecondaryGnb.masterEnb1.cellularNic.rlc.tm receivedPacketFromLowerLayer:sum(packetBytes) 0
scalar MultiCell_withSecondaryGnb.masterEnb1.cellularNic.rlc.tm receivedPacketFromUpperLayer:count 0
scalar MultiCell_withSecondaryGnb.masterEnb1.cellularNic.rlc.tm receivedPacketFromUpperLayer:sum(packetBytes) 0
scalar MultiCell_withSecondaryGnb.masterEnb1.cellularNic.rlc.um rlcCellThroughputD2D:simu5g_rateavg -nan
scalar MultiCell_withSecondaryGnb.masterEnb1.cellularNic.rlc.um rlcPduThroughputD2D:simu5g_rateavg -nan
scalar MultiCell_withSecondaryGnb.masterEnb1.cellularNic.rlc.um rlcPduDelayD2D:mean -nan
scalar MultiCell_withSecondaryGnb.masterEnb1.cellularNic.rlc.um rlcThroughputD2D:simu5g_rateavg -nan
scalar MultiCell_withSecondaryGnb.masterEnb1.cellularNic.rlc.um rlcDelayD2D:mean -nan
scalar MultiCell_withSecondaryGnb.masterEnb1.cellularNic.rlc.um rlcCellThroughputUl:simu5g_rateavg 68478.991342501424
scalar MultiCell_withSecondaryGnb.masterEnb1.cellularNic.rlc.um rlcCellThroughputDl:simu5g_rateavg -nan
scalar MultiCell_withSecondaryGnb.masterEnb1.cellularNic.rlc.um rlcPduThroughputUl:simu5g_rateavg -nan
scalar MultiCell_withSecondaryGnb.masterEnb1.cellularNic.rlc.um rlcPduThroughputDl:simu5g_rateavg -nan
scalar MultiCell_withSecondaryGnb.masterEnb1.cellularNic.rlc.um rlcPduDelayUl:mean -nan
scalar MultiCell_withSecondaryGnb.masterEnb1.cellularNic.rlc.um rlcPduDelayDl:mean -nan
scalar MultiCell_withSecondaryGnb.masterEnb1.cellularNic.rlc.um rlcThroughputUl:simu5g_rateavg -nan
scalar MultiCell_withSecondaryGnb.masterEnb1.cellularNic.rlc.um rlcThroughputDl:simu5g_rateavg -nan
scalar MultiCell_withSecondaryGnb.masterEnb1.cellularNic.rlc.um rlcDelayUl:mean -nan
scalar MultiCell_withSecondaryGnb.masterEnb1.cellularNic.rlc.um rlcDelayDl:mean -nan
scalar MultiCell_withSecondaryGnb.masterEnb1.cellularNic.rlc.um sentPacketToLowerLayer:count 0
scalar MultiCell_withSecondaryGnb.masterEnb1.cellularNic.rlc.um sentPacketToLowerLayer:sum(packetBytes) 0
scalar MultiCell_withSecondaryGnb.masterEnb1.cellularNic.rlc.um sentPacketToUpperLayer:count 12221
scalar MultiCell_withSecondaryGnb.masterEnb1.cellularNic.rlc.um sentPacketToUpperLayer:sum(packetBytes) 843249
scalar MultiCell_withSecondaryGnb.masterEnb1.cellularNic.rlc.um receivedPacketFromLowerLayer:count 13277
scalar MultiCell_withSecondaryGnb.masterEnb1.cellularNic.rlc.um receivedPacketFromLowerLayer:sum(packetBytes) 878988
scalar MultiCell_withSecondaryGnb.masterEnb1.cellularNic.rlc.um receivedPacketFromUpperLayer:count 0
scalar MultiCell_withSecondaryGnb.masterEnb1.cellularNic.rlc.um receivedPacketFromUpperLayer:sum(packetBytes) 0
scalar MultiCell_withSecondaryGnb.masterEnb1.cellularNic.rlc.am rlcPacketLossTotal:mean -nan
scalar MultiCell_withSecondaryGnb.masterEnb1.cellularNic.rlc.am rlcCellThroughputUl:simu5g_rateavg -nan
scalar MultiCell_withSecondaryGnb.masterEnb1.cellularNic.rlc.am rlcCellThroughputDl:simu5g_rateavg -nan
scalar MultiCell_withSecondaryGnb.masterEnb1.cellularNic.rlc.am rlcPduThroughputUl:simu5g_rateavg -nan
scalar MultiCell_withSecondaryGnb.masterEnb1.cellularNic.rlc.am rlcPduThroughputDl:simu5g_rateavg -nan
scalar MultiCell_withSecondaryGnb.masterEnb1.cellularNic.rlc.am rlcPduDelayUl:mean -nan
scalar MultiCell_withSecondaryGnb.masterEnb1.cellularNic.rlc.am rlcPduDelayDl:mean -nan
scalar MultiCell_withSecondaryGnb.masterEnb1.cellularNic.rlc.am rlcThroughputUl:simu5g_rateavg -nan
scalar MultiCell_withSecondaryGnb.masterEnb1.cellularNic.rlc.am rlcThroughputDl:simu5g_rateavg -nan
scalar MultiCell_withSecondaryGnb.masterEnb1.cellularNic.rlc.am rlcDelayUl:mean -nan
scalar MultiCell_withSecondaryGnb.masterEnb1.cellularNic.rlc.am rlcDelayDl:mean -nan
scalar MultiCell_withSecondaryGnb.masterEnb1.cellularNic.rlc.am rlcPduPacketLossUl:mean -nan
scalar MultiCell_withSecondaryGnb.masterEnb1.cellularNic.rlc.am rlcPduPacketLossDl:mean -nan
scalar MultiCell_withSecondaryGnb.masterEnb1.cellularNic.rlc.am rlcPacketLossUl:mean -nan
scalar MultiCell_withSecondaryGnb.masterEnb1.cellularNic.rlc.am rlcPacketLossDl:mean -nan
scalar MultiCell_withSecondaryGnb.masterEnb1.cellularNic.rlc.am rlcCellPacketLossUl:mean -nan
scalar MultiCell_withSecondaryGnb.masterEnb1.cellularNic.rlc.am rlcCellPacketLossDl:mean -nan
scalar MultiCell_withSecondaryGnb.masterEnb1.cellularNic.mac avgServedBlocksUl:mean 0.32840000000000003
scalar MultiCell_withSecondaryGnb.masterEnb1.cellularNic.mac avgServedBlocksDl:mean 0
scalar MultiCell_withSecondaryGnb.masterEnb1.cellularNic.mac macCellPacketLossD2D:mean -nan
scalar MultiCell_withSecondaryGnb.masterEnb1.cellularNic.mac macCellThroughputD2D:simu5g_rateavg -nan
scalar MultiCell_withSecondaryGnb.masterEnb1.cellularNic.mac harqTxAttemptsUl:mean -nan
scalar MultiCell_withSecondaryGnb.masterEnb1.cellularNic.mac harqTxAttemptsDl:mean -nan
scalar MultiCell_withSecondaryGnb.masterEnb1.cellularNic.mac harqErrorRate_4th_Ul:mean -nan
scalar MultiCell_withSecondaryGnb.masterEnb1.cellularNic.mac harqErrorRate_4th_Dl:mean -nan
scalar MultiCell_withSecondaryGnb.masterEnb1.cellularNic.mac harqErrorRate_3rd_Ul:mean -nan
scalar MultiCell_withSecondaryGnb.masterEnb1.cellularNic.mac harqErrorRate_3rd_Dl:mean -nan
scalar MultiCell_withSecondaryGnb.masterEnb1.cellularNic.mac harqErrorRate_2nd_Ul:mean -nan
scalar MultiCell_withSecondaryGnb.masterEnb1.cellularNic.mac harqErrorRate_2nd_Dl:mean -nan
scalar MultiCell_withSecondaryGnb.masterEnb1.cellularNic.mac harqErrorRate_1st_Ul:mean -nan
scalar MultiCell_withSecondaryGnb.masterEnb1.cellularNic.mac harqErrorRate_1st_Dl:mean -nan
scalar MultiCell_withSecondaryGnb.masterEnb1.cellularNic.mac harqErrorRateUl:mean -nan
scalar MultiCell_withSecondaryGnb.masterEnb1.cellularNic.mac harqErrorRateDl:mean -nan
scalar MultiCell_withSecondaryGnb.masterEnb1.cellularNic.mac macCellPacketLossUl:mean 0
scalar MultiCell_withSecondaryGnb.masterEnb1.cellularNic.mac macCellPacketLossDl:mean -nan
scalar MultiCell_withSecondaryGnb.masterEnb1.cellularNic.mac macPacketLossUl:mean -nan
scalar MultiCell_withSecondaryGnb.masterEnb1.cellularNic.mac macPacketLossDl:mean -nan
scalar MultiCell_withSecondaryGnb.masterEnb1.cellularNic.mac macThroughputUl:simu5g_rateavg -nan
scalar MultiCell_withSecondaryGnb.masterEnb1.cellularNic.mac macThroughputDl:simu5g_rateavg -nan
scalar MultiCell_withSecondaryGnb.masterEnb1.cellularNic.mac macDelayUl:mean -nan
scalar MultiCell_withSecondaryGnb.masterEnb1.cellularNic.mac macDelayDl:mean -nan
scalar MultiCell_withSecondaryGnb.masterEnb1.cellularNic.mac macCellThroughputUl:simu5g_rateavg 73029.703259455957
scalar MultiCell_withSecondaryGnb.masterEnb1.cellularNic.mac macCellThroughputDl:simu5g_rateavg -nan
scalar MultiCell_withSecondaryGnb.masterEnb1.cellularNic.mac sentPacketToLowerLayer:count 42703
scalar MultiCell_withSecondaryGnb.masterEnb1.cellularNic.mac sentPacketToLowerLayer:sum(packetBytes) 42703
scalar MultiCell_withSecondaryGnb.masterEnb1.cellularNic.mac sentPacketToUpperLayer:count 13277
scalar MultiCell_withSecondaryGnb.masterEnb1.cellularNic.mac sentPacketToUpperLayer:sum(packetBytes) 878988
scalar MultiCell_withSecondaryGnb.masterEnb1.cellularNic.mac receivedPacketFromLowerLayer:count 48366
scalar MultiCell_withSecondaryGnb.masterEnb1.cellularNic.mac receivedPacketFromLowerLayer:sum(packetBytes) 1043182
scalar MultiCell_withSecondaryGnb.masterEnb1.cellularNic.mac receivedPacketFromUpperLayer:count 0
scalar MultiCell_withSecondaryGnb.masterEnb1.cellularNic.mac receivedPacketFromUpperLayer:sum(packetBytes) 0
scalar MultiCell_withSecondaryGnb.masterEnb1.cellularNic.mac macBufferOverFlowD2D:mean -nan
scalar MultiCell_withSecondaryGnb.masterEnb1.cellularNic.mac macBufferOverFlowUl:mean -nan
scalar MultiCell_withSecondaryGnb.masterEnb1.cellularNic.mac macBufferOverFlowDl:mean -nan
scalar MultiCell_withSecondaryGnb.masterEnb1.cellularNic.channelModel[0] measuredSinrUl:mean -nan
scalar MultiCell_withSecondaryGnb.masterEnb1.cellularNic.channelModel[0] measuredSinrDl:mean -nan
scalar MultiCell_withSecondaryGnb.masterEnb1.cellularNic.channelModel[0] rcvdSinrD2D:mean -nan
scalar MultiCell_withSecondaryGnb.masterEnb1.cellularNic.channelModel[0] rcvdSinrUl:mean -nan
scalar MultiCell_withSecondaryGnb.masterEnb1.cellularNic.channelModel[0] rcvdSinrDl:mean -nan
scalar MultiCell_withSecondaryGnb.masterEnb1.cellularNic packetDropInterfaceDown:count 0
scalar MultiCell_withSecondaryGnb.masterEnb1.cellularNic packetDropInterfaceDown:sum(packetBytes) 0
scalar MultiCell_withSecondaryGnb.masterEnb1.cellularNic packetDropNoCarrier:count 0
scalar MultiCell_withSecondaryGnb.masterEnb1.cellularNic packetDropNoCarrier:sum(packetBytes) 0
scalar MultiCell_withSecondaryGnb.masterEnb1.pppIf.queue queueLength:last 0
scalar MultiCell_withSecondaryGnb.masterEnb1.pppIf.queue queueLength:max 41
scalar MultiCell_withSecondaryGnb.masterEnb1.pppIf.queue queueLength:timeavg 4.3539151999998272e-05
scalar MultiCell_withSecondaryGnb.masterEnb1.pppIf.queue queueBitLength:last 0
scalar MultiCell_withSecondaryGnb.masterEnb1.pppIf.queue queueBitLength:max 34112
scalar MultiCell_withSecondaryGnb.masterEnb1.pppIf.queue queueBitLength:timeavg 0.036224574464001555
scalar MultiCell_withSecondaryGnb.masterEnb1.pppIf.queue outgoingPackets:count 24340
scalar MultiCell_withSecondaryGnb.masterEnb1.pppIf.queue outgoingPacketLengths:sum 20250880
scalar MultiCell_withSecondaryGnb.masterEnb1.pppIf.queue incomingPackets:count 24340
scalar MultiCell_withSecondaryGnb.masterEnb1.pppIf.queue incomingPacketLengths:sum 20250880
scalar MultiCell_withSecondaryGnb.masterEnb1.pppIf.queue droppedPacketsQueueOverflow:count 0
scalar MultiCell_withSecondaryGnb.masterEnb1.pppIf.queue droppedPacketLengthsQueueOverflow:sum 0
scalar MultiCell_withSecondaryGnb.masterEnb1.pppIf.ppp transmissionState:timeavg 4.322783999998214e-05
scalar MultiCell_withSecondaryGnb.masterEnb1.pppIf.ppp rxPkOk:count 0
scalar MultiCell_withSecondaryGnb.masterEnb1.pppIf.ppp rxPkOk:sum(packetBytes) 0
scalar MultiCell_withSecondaryGnb.masterEnb1.pppIf.ppp txPk:count 24340
scalar MultiCell_withSecondaryGnb.masterEnb1.pppIf.ppp txPk:sum(packetBytes) 2701740
scalar MultiCell_withSecondaryGnb.masterEnb1.pppIf.ppp rcvdPkFromHl:count 24340
scalar MultiCell_withSecondaryGnb.masterEnb1.pppIf.ppp rcvdPkFromHl:sum(packetBytes) 2531360
scalar MultiCell_withSecondaryGnb.masterEnb1.pppIf.ppp passedUpPk:count 0
scalar MultiCell_withSecondaryGnb.masterEnb1.pppIf.ppp passedUpPk:sum(packetBytes) 0
scalar MultiCell_withSecondaryGnb.masterEnb1.pppIf.ppp packetDropIncorrectlyReceived:count 0
scalar MultiCell_withSecondaryGnb.masterEnb1.pppIf.ppp packetDropIncorrectlyReceived:sum(packetBytes) 0
scalar MultiCell_withSecondaryGnb.masterEnb1.pppIf.ppp packetDropInterfaceDown:count 0
scalar MultiCell_withSecondaryGnb.masterEnb1.pppIf.ppp packetDropInterfaceDown:sum(packetBytes) 0
scalar MultiCell_withSecondaryGnb.masterEnb1.pppIf packetDropInterfaceDown:count 0
scalar MultiCell_withSecondaryGnb.masterEnb1.pppIf packetDropInterfaceDown:sum(packetBytes) 0
scalar MultiCell_withSecondaryGnb.masterEnb1.pppIf packetDropNoCarrier:count 0
scalar MultiCell_withSecondaryGnb.masterEnb1.pppIf packetDropNoCarrier:sum(packetBytes) 0
scalar MultiCell_withSecondaryGnb.masterEnb1.x2ppp[0].queue queueLength:last 0
scalar MultiCell_withSecondaryGnb.masterEnb1.x2ppp[0].queue queueLength:max 0
scalar MultiCell_withSecondaryGnb.masterEnb1.x2ppp[0].queue queueLength:timeavg 0
scalar MultiCell_withSecondaryGnb.masterEnb1.x2ppp[0].queue queueBitLength:last 0
scalar MultiCell_withSecondaryGnb.masterEnb1.x2ppp[0].queue queueBitLength:max 0
scalar MultiCell_withSecondaryGnb.masterEnb1.x2ppp[0].queue queueBitLength:timeavg 0
scalar MultiCell_withSecondaryGnb.masterEnb1.x2ppp[0].queue outgoingPackets:count 4
scalar MultiCell_withSecondaryGnb.masterEnb1.x2ppp[0].queue outgoingPacketLengths:sum 3456
scalar MultiCell_withSecondaryGnb.masterEnb1.x2ppp[0].queue incomingPackets:count 4
scalar MultiCell_withSecondaryGnb.masterEnb1.x2ppp[0].queue incomingPacketLengths:sum 3456
scalar MultiCell_withSecondaryGnb.masterEnb1.x2ppp[0].queue droppedPacketsQueueOverflow:count 0
scalar MultiCell_withSecondaryGnb.masterEnb1.x2ppp[0].queue droppedPacketLengthsQueueOverflow:sum 0
scalar MultiCell_withSecondaryGnb.masterEnb1.x2ppp[0].ppp transmissionState:timeavg 7.3599999999999994e-09
scalar MultiCell_withSecondaryGnb.masterEnb1.x2ppp[0].ppp rxPkOk:count 12141
scalar MultiCell_withSecondaryGnb.masterEnb1.x2ppp[0].ppp rxPkOk:sum(packetBytes) 1493295
scalar MultiCell_withSecondaryGnb.masterEnb1.x2ppp[0].ppp txPk:count 4
scalar MultiCell_withSecondaryGnb.masterEnb1.x2ppp[0].ppp txPk:sum(packetBytes) 460
scalar MultiCell_withSecondaryGnb.masterEnb1.x2ppp[0].ppp rcvdPkFromHl:count 4
scalar MultiCell_withSecondaryGnb.masterEnb1.x2ppp[0].ppp rcvdPkFromHl:sum(packetBytes) 432
scalar MultiCell_withSecondaryGnb.masterEnb1.x2ppp[0].ppp passedUpPk:count 12141
scalar MultiCell_withSecondaryGnb.masterEnb1.x2ppp[0].ppp passedUpPk:sum(packetBytes) 1408308
scalar MultiCell_withSecondaryGnb.masterEnb1.x2ppp[0].ppp packetDropIncorrectlyReceived:count 0
scalar MultiCell_withSecondaryGnb.masterEnb1.x2ppp[0].ppp packetDropIncorrectlyReceived:sum(packetBytes) 0
scalar MultiCell_withSecondaryGnb.masterEnb1.x2ppp[0].ppp packetDropInterfaceDown:count 0
scalar MultiCell_withSecondaryGnb.masterEnb1.x2ppp[0].ppp packetDropInterfaceDown:sum(packetBytes) 0
scalar MultiCell_withSecondaryGnb.masterEnb1.x2ppp[0] packetDropInterfaceDown:count 0
scalar MultiCell_withSecondaryGnb.masterEnb1.x2ppp[0] packetDropInterfaceDown:sum(packetBytes) 0
scalar MultiCell_withSecondaryGnb.masterEnb1.x2ppp[0] packetDropNoCarrier:count 0
scalar MultiCell_withSecondaryGnb.masterEnb1.x2ppp[0] packetDropNoCarrier:sum(packetBytes) 0
scalar MultiCell_withSecondaryGnb.masterEnb1.x2ppp[1].queue queueLength:last 0
scalar MultiCell_withSecondaryGnb.masterEnb1.x2ppp[1].queue queueLength:max 3
scalar MultiCell_withSecondaryGnb.masterEnb1.x2ppp[1].queue queueLength:timeavg 7.3439999999999995e-09
scalar MultiCell_withSecondaryGnb.masterEnb1.x2ppp[1].queue queueBitLength:last 0
scalar MultiCell_withSecondaryGnb.masterEnb1.x2ppp[1].queue queueBitLength:max 1536
scalar MultiCell_withSecondaryGnb.masterEnb1.x2ppp[1].queue queueBitLength:timeavg 3.7601279999999997e-06
scalar MultiCell_withSecondaryGnb.masterEnb1.x2ppp[1].queue outgoingPackets:count 24
scalar MultiCell_withSecondaryGnb.masterEnb1.x2ppp[1].queue outgoingPacketLengths:sum 12544
scalar MultiCell_withSecondaryGnb.masterEnb1.x2ppp[1].queue incomingPackets:count 24
scalar MultiCell_withSecondaryGnb.masterEnb1.x2ppp[1].queue incomingPacketLengths:sum 12544
scalar MultiCell_withSecondaryGnb.masterEnb1.x2ppp[1].queue droppedPacketsQueueOverflow:count 0
scalar MultiCell_withSecondaryGnb.masterEnb1.x2ppp[1].queue droppedPacketLengthsQueueOverflow:sum 0
scalar MultiCell_withSecondaryGnb.masterEnb1.x2ppp[1].ppp transmissionState:timeavg 2.7776e-08
scalar MultiCell_withSecondaryGnb.masterEnb1.x2ppp[1].ppp rxPkOk:count 24
scalar MultiCell_withSecondaryGnb.masterEnb1.x2ppp[1].ppp rxPkOk:sum(packetBytes) 1736
scalar MultiCell_withSecondaryGnb.masterEnb1.x2ppp[1].ppp txPk:count 24
scalar MultiCell_withSecondaryGnb.masterEnb1.x2ppp[1].ppp txPk:sum(packetBytes) 1736
scalar MultiCell_withSecondaryGnb.masterEnb1.x2ppp[1].ppp rcvdPkFromHl:count 24
scalar MultiCell_withSecondaryGnb.masterEnb1.x2ppp[1].ppp rcvdPkFromHl:sum(packetBytes) 1568
scalar MultiCell_withSecondaryGnb.masterEnb1.x2ppp[1].ppp passedUpPk:count 24
scalar MultiCell_withSecondaryGnb.masterEnb1.x2ppp[1].ppp passedUpPk:sum(packetBytes) 1568
scalar MultiCell_withSecondaryGnb.masterEnb1.x2ppp[1].ppp packetDropIncorrectlyReceived:count 0
scalar MultiCell_withSecondaryGnb.masterEnb1.x2ppp[1].ppp packetDropIncorrectlyReceived:sum(packetBytes) 0
scalar MultiCell_withSecondaryGnb.masterEnb1.x2ppp[1].ppp packetDropInterfaceDown:count 0
scalar MultiCell_withSecondaryGnb.masterEnb1.x2ppp[1].ppp packetDropInterfaceDown:sum(packetBytes) 0
scalar MultiCell_withSecondaryGnb.masterEnb1.x2ppp[1] packetDropInterfaceDown:count 0
scalar MultiCell_withSecondaryGnb.masterEnb1.x2ppp[1] packetDropInterfaceDown:sum(packetBytes) 0
scalar MultiCell_withSecondaryGnb.masterEnb1.x2ppp[1] packetDropNoCarrier:count 0
scalar MultiCell_withSecondaryGnb.masterEnb1.x2ppp[1] packetDropNoCarrier:sum(packetBytes) 0
scalar MultiCell_withSecondaryGnb.masterEnb1.pppMEHostIf.queue queueLength:last 0
scalar MultiCell_withSecondaryGnb.masterEnb1.pppMEHostIf.queue queueLength:max 0
scalar MultiCell_withSecondaryGnb.masterEnb1.pppMEHostIf.queue queueLength:timeavg 0
scalar MultiCell_withSecondaryGnb.masterEnb1.pppMEHostIf.queue queueBitLength:last 0
scalar MultiCell_withSecondaryGnb.masterEnb1.pppMEHostIf.queue queueBitLength:max 0
scalar MultiCell_withSecondaryGnb.masterEnb1.pppMEHostIf.queue queueBitLength:timeavg 0
scalar MultiCell_withSecondaryGnb.masterEnb1.pppMEHostIf.queue outgoingPackets:count 0
scalar MultiCell_withSecondaryGnb.masterEnb1.pppMEHostIf.queue outgoingPacketLengths:sum 0
scalar MultiCell_withSecondaryGnb.masterEnb1.pppMEHostIf.queue incomingPackets:count 0
scalar MultiCell_withSecondaryGnb.masterEnb1.pppMEHostIf.queue incomingPacketLengths:sum 0
scalar MultiCell_withSecondaryGnb.masterEnb1.pppMEHostIf.queue droppedPacketsQueueOverflow:count 0
scalar MultiCell_withSecondaryGnb.masterEnb1.pppMEHostIf.queue droppedPacketLengthsQueueOverflow:sum 0
scalar MultiCell_withSecondaryGnb.masterEnb1.pppMEHostIf.ppp transmissionState:timeavg 0
scalar MultiCell_withSecondaryGnb.masterEnb1.pppMEHostIf.ppp rxPkOk:count 0
scalar MultiCell_withSecondaryGnb.masterEnb1.pppMEHostIf.ppp rxPkOk:sum(packetBytes) 0
scalar MultiCell_withSecondaryGnb.masterEnb1.pppMEHostIf.ppp txPk:count 0
scalar MultiCell_withSecondaryGnb.masterEnb1.pppMEHostIf.ppp txPk:sum(packetBytes) 0
scalar MultiCell_withSecondaryGnb.masterEnb1.pppMEHostIf.ppp rcvdPkFromHl:count 0
scalar MultiCell_withSecondaryGnb.masterEnb1.pppMEHostIf.ppp rcvdPkFromHl:sum(packetBytes) 0
scalar MultiCell_withSecondaryGnb.masterEnb1.pppMEHostIf.ppp passedUpPk:count 0
scalar MultiCell_withSecondaryGnb.masterEnb1.pppMEHostIf.ppp passedUpPk:sum(packetBytes) 0
scalar MultiCell_withSecondaryGnb.masterEnb1.pppMEHostIf.ppp packetDropIncorrectlyReceived:count 0
scalar MultiCell_withSecondaryGnb.masterEnb1.pppMEHostIf.ppp packetDropIncorrectlyReceived:sum(packetBytes) 0
scalar MultiCell_withSecondaryGnb.masterEnb1.pppMEHostIf.ppp packetDropInterfaceDown:count 0
scalar MultiCell_withSecondaryGnb.masterEnb1.pppMEHostIf.ppp packetDropInterfaceDown:sum(packetBytes) 0
scalar MultiCell_withSecondaryGnb.masterEnb1.pppMEHostIf packetDropInterfaceDown:count 0
scalar MultiCell_withSecondaryGnb.masterEnb1.pppMEHostIf packetDropInterfaceDown:sum(packetBytes) 0
scalar MultiCell_withSecondaryGnb.masterEnb1.pppMEHostIf packetDropNoCarrier:count 0
scalar MultiCell_withSecondaryGnb.masterEnb1.pppMEHostIf packetDropNoCarrier:sum(packetBytes) 0
scalar MultiCell_withSecondaryGnb.masterEnb1.ipv4.ip packetDropAddressResolutionFailed:count 0
scalar MultiCell_withSecondaryGnb.masterEnb1.ipv4.ip packetDropAddressResolutionFailed:sum(packetBytes) 0
scalar MultiCell_withSecondaryGnb.masterEnb1.ipv4.ip packetDropHopLimitReached:count 0
scalar MultiCell_withSecondaryGnb.masterEnb1.ipv4.ip packetDropHopLimitReached:sum(packetBytes) 0
scalar MultiCell_withSecondaryGnb.masterEnb1.ipv4.ip packetDropForwardingDisabled:count 0
scalar MultiCell_withSecondaryGnb.masterEnb1.ipv4.ip packetDropForwardingDisabled:sum(packetBytes) 0
scalar MultiCell_withSecondaryGnb.masterEnb1.ipv4.ip packetDropNoInterfaceFound:count 0
scalar MultiCell_withSecondaryGnb.masterEnb1.ipv4.ip packetDropNoInterfaceFound:sum(packetBytes) 0
scalar MultiCell_withSecondaryGnb.masterEnb1.ipv4.ip packetDropNoRouteFound:count 0
scalar MultiCell_withSecondaryGnb.masterEnb1.ipv4.ip packetDropNoRouteFound:sum(packetBytes) 0
scalar MultiCell_withSecondaryGnb.masterEnb1.ipv4.ip packetDropUndefined:count 0
scalar MultiCell_withSecondaryGnb.masterEnb1.ipv4.ip packetDropUndefined:sum(packetBytes) 0
scalar MultiCell_withSecondaryGnb.masterEnb1.ipv4.arp arpResolutionFailed:count 0
scalar MultiCell_withSecondaryGnb.masterEnb1.ipv4.arp arpResolutionCompleted:count 0
scalar MultiCell_withSecondaryGnb.masterEnb1.ipv4.arp arpResolutionInitiated:count 0
scalar MultiCell_withSecondaryGnb.masterEnb1.ipv4.arp arpReplySent:count 0
scalar MultiCell_withSecondaryGnb.masterEnb1.ipv4.arp arpReplySent:sum(packetBytes) 0
scalar MultiCell_withSecondaryGnb.masterEnb1.ipv4.arp arpRequestSent:count 0
scalar MultiCell_withSecondaryGnb.masterEnb1.ipv4.arp arpRequestSent:sum(packetBytes) 0
scalar MultiCell_withSecondaryGnb.masterEnb1.udp packetReceived:count 12137
scalar MultiCell_withSecondaryGnb.masterEnb1.udp packetReceived:sum(packetBytes) 1165152
scalar MultiCell_withSecondaryGnb.masterEnb1.udp packetSent:count 24340
scalar MultiCell_withSecondaryGnb.masterEnb1.udp packetSent:sum(packetBytes) 2044560
scalar MultiCell_withSecondaryGnb.masterEnb1.udp passedUpPk:count 12137
scalar MultiCell_withSecondaryGnb.masterEnb1.udp droppedPkWrongPort:count 0
scalar MultiCell_withSecondaryGnb.masterEnb1.udp droppedPkBadChecksum:count 0
scalar MultiCell_withSecondaryGnb.masterEnb1.x2App[0].client packetReceived:count 0
scalar MultiCell_withSecondaryGnb.masterEnb1.x2App[0].client packetReceived:sum(packetBytes) 0
scalar MultiCell_withSecondaryGnb.masterEnb1.x2App[0].client packetSent:count 0
scalar MultiCell_withSecondaryGnb.masterEnb1.x2App[0].client packetSent:sum(packetBytes) 0
scalar MultiCell_withSecondaryGnb.masterEnb1.x2App[0].client echoedPk:count 0
scalar MultiCell_withSecondaryGnb.masterEnb1.x2App[0].client echoedPk:sum(packetBytes) 0
scalar MultiCell_withSecondaryGnb.masterEnb1.x2App[0].server "bytes rcvd" 0
scalar MultiCell_withSecondaryGnb.masterEnb1.x2App[0].server throughput -nan
scalar MultiCell_withSecondaryGnb.masterEnb1.x2App[1].client packetReceived:count 11
scalar MultiCell_withSecondaryGnb.masterEnb1.x2App[1].client packetReceived:sum(packetBytes) 165
scalar MultiCell_withSecondaryGnb.masterEnb1.x2App[1].client packetSent:count 0
scalar MultiCell_withSecondaryGnb.masterEnb1.x2App[1].client packetSent:sum(packetBytes) 0
scalar MultiCell_withSecondaryGnb.masterEnb1.x2App[1].client echoedPk:count 0
scalar MultiCell_withSecondaryGnb.masterEnb1.x2App[1].client echoedPk:sum(packetBytes) 0
scalar MultiCell_withSecondaryGnb.masterEnb1.x2App[1].server "bytes rcvd" 0
scalar MultiCell_withSecondaryGnb.masterEnb1.x2App[1].server throughput -nan
scalar MultiCell_withSecondaryGnb.secondaryGnb1.cellularNic.pdcp sentPacketToLowerLayer:count 0
scalar MultiCell_withSecondaryGnb.secondaryGnb1.cellularNic.pdcp sentPacketToLowerLayer:sum(packetBytes) 0
scalar MultiCell_withSecondaryGnb.secondaryGnb1.cellularNic.pdcp sentPacketToUpperLayer:count 0
scalar MultiCell_withSecondaryGnb.secondaryGnb1.cellularNic.pdcp sentPacketToUpperLayer:sum(packetBytes) 0
scalar MultiCell_withSecondaryGnb.secondaryGnb1.cellularNic.pdcp receivedPacketFromLowerLayer:count 0
scalar MultiCell_withSecondaryGnb.secondaryGnb1.cellularNic.pdcp receivedPacketFromLowerLayer:sum(packetBytes) 0
scalar MultiCell_withSecondaryGnb.secondaryGnb1.cellularNic.pdcp receivedPacketFromUpperLayer:count 0
scalar MultiCell_withSecondaryGnb.secondaryGnb1.cellularNic.pdcp receivedPacketFromUpperLayer:sum(packetBytes) 0
scalar MultiCell_withSecondaryGnb.secondaryGnb1.cellularNic.rlc.tm rlcPacketLossUl:mean -nan
scalar MultiCell_withSecondaryGnb.secondaryGnb1.cellularNic.rlc.tm rlcPacketLossUl:sum 0
scalar MultiCell_withSecondaryGnb.secondaryGnb1.cellularNic.rlc.tm rlcPacketLossDl:mean -nan
scalar MultiCell_withSecondaryGnb.secondaryGnb1.cellularNic.rlc.tm rlcPacketLossDl:sum 0
scalar MultiCell_withSecondaryGnb.secondaryGnb1.cellularNic.rlc.tm sentPacketToLowerLayer:count 0
scalar MultiCell_withSecondaryGnb.secondaryGnb1.cellularNic.rlc.tm sentPacketToLowerLayer:sum(packetBytes) 0
scalar MultiCell_withSecondaryGnb.secondaryGnb1.cellularNic.rlc.tm sentPacketToUpperLayer:count 0
scalar MultiCell_withSecondaryGnb.secondaryGnb1.cellularNic.rlc.tm sentPacketToUpperLayer:sum(packetBytes) 0
scalar MultiCell_withSecondaryGnb.secondaryGnb1.cellularNic.rlc.tm receivedPacketFromLowerLayer:count 0
scalar MultiCell_withSecondaryGnb.secondaryGnb1.cellularNic.rlc.tm receivedPacketFromLowerLayer:sum(packetBytes) 0
scalar MultiCell_withSecondaryGnb.secondaryGnb1.cellularNic.rlc.tm receivedPacketFromUpperLayer:count 0
scalar MultiCell_withSecondaryGnb.secondaryGnb1.cellularNic.rlc.tm receivedPacketFromUpperLayer:sum(packetBytes) 0
scalar MultiCell_withSecondaryGnb.secondaryGnb1.cellularNic.rlc.um rlcCellThroughputD2D:simu5g_rateavg -nan
scalar MultiCell_withSecondaryGnb.secondaryGnb1.cellularNic.rlc.um rlcPduThroughputD2D:simu5g_rateavg -nan
scalar MultiCell_withSecondaryGnb.secondaryGnb1.cellularNic.rlc.um rlcPduDelayD2D:mean -nan
scalar MultiCell_withSecondaryGnb.secondaryGnb1.cellularNic.rlc.um rlcThroughputD2D:simu5g_rateavg -nan
scalar MultiCell_withSecondaryGnb.secondaryGnb1.cellularNic.rlc.um rlcDelayD2D:mean -nan
scalar MultiCell_withSecondaryGnb.secondaryGnb1.cellularNic.rlc.um rlcCellThroughputUl:simu5g_rateavg 68485.752872413228
scalar MultiCell_withSecondaryGnb.secondaryGnb1.cellularNic.rlc.um rlcCellThroughputDl:simu5g_rateavg -nan
scalar MultiCell_withSecondaryGnb.secondaryGnb1.cellularNic.rlc.um rlcPduThroughputUl:simu5g_rateavg -nan
scalar MultiCell_withSecondaryGnb.secondaryGnb1.cellularNic.rlc.um rlcPduThroughputDl:simu5g_rateavg -nan
scalar MultiCell_withSecondaryGnb.secondaryGnb1.cellularNic.rlc.um rlcPduDelayUl:mean -nan
scalar MultiCell_withSecondaryGnb.secondaryGnb1.cellularNic.rlc.um rlcPduDelayDl:mean -nan
scalar MultiCell_withSecondaryGnb.secondaryGnb1.cellularNic.rlc.um rlcThroughputUl:simu5g_rateavg -nan
scalar MultiCell_withSecondaryGnb.secondaryGnb1.cellularNic.rlc.um rlcThroughputDl:simu5g_rateavg -nan
scalar MultiCell_withSecondaryGnb.secondaryGnb1.cellularNic.rlc.um rlcDelayUl:mean -nan
scalar MultiCell_withSecondaryGnb.secondaryGnb1.cellularNic.rlc.um rlcDelayDl:mean -nan
scalar MultiCell_withSecondaryGnb.secondaryGnb1.cellularNic.rlc.um sentPacketToLowerLayer:count 0
scalar MultiCell_withSecondaryGnb.secondaryGnb1.cellularNic.rlc.um sentPacketToLowerLayer:sum(packetBytes) 0
scalar MultiCell_withSecondaryGnb.secondaryGnb1.cellularNic.rlc.um sentPacketToUpperLayer:count 12137
scalar MultiCell_withSecondaryGnb.secondaryGnb1.cellularNic.rlc.um sentPacketToUpperLayer:sum(packetBytes) 837453
scalar MultiCell_withSecondaryGnb.secondaryGnb1.cellularNic.rlc.um receivedPacketFromLowerLayer:count 13009
scalar MultiCell_withSecondaryGnb.secondaryGnb1.cellularNic.rlc.um receivedPacketFromLowerLayer:sum(packetBytes) 863839
scalar MultiCell_withSecondaryGnb.secondaryGnb1.cellularNic.rlc.um receivedPacketFromUpperLayer:count 0
scalar MultiCell_withSecondaryGnb.secondaryGnb1.cellularNic.rlc.um receivedPacketFromUpperLayer:sum(packetBytes) 0
scalar MultiCell_withSecondaryGnb.secondaryGnb1.cellularNic.rlc.am rlcPacketLossTotal:mean -nan
scalar MultiCell_withSecondaryGnb.secondaryGnb1.cellularNic.rlc.am rlcCellThroughputUl:simu5g_rateavg -nan
scalar MultiCell_withSecondaryGnb.secondaryGnb1.cellularNic.rlc.am rlcCellThroughputDl:simu5g_rateavg -nan
scalar MultiCell_withSecondaryGnb.secondaryGnb1.cellularNic.rlc.am rlcPduThroughputUl:simu5g_rateavg -nan
scalar MultiCell_withSecondaryGnb.secondaryGnb1.cellularNic.rlc.am rlcPduThroughputDl:simu5g_rateavg -nan
scalar MultiCell_withSecondaryGnb.secondaryGnb1.cellularNic.rlc.am rlcPduDelayUl:mean -nan
scalar MultiCell_withSecondaryGnb.secondaryGnb1.cellularNic.rlc.am rlcPduDelayDl:mean -nan
scalar MultiCell_withSecondaryGnb.secondaryGnb1.cellularNic.rlc.am rlcThroughputUl:simu5g_rateavg -nan
scalar MultiCell_withSecondaryGnb.secondaryGnb1.cellularNic.rlc.am rlcThroughputDl:simu5g_rateavg -nan
scalar MultiCell_withSecondaryGnb.secondaryGnb1.cellularNic.rlc.am rlcDelayUl:mean -nan
scalar MultiCell_withSecondaryGnb.secondaryGnb1.cellularNic.rlc.am rlcDelayDl:mean -nan
scalar MultiCell_withSecondaryGnb.secondaryGnb1.cellularNic.rlc.am rlcPduPacketLossUl:mean -nan
scalar MultiCell_withSecondaryGnb.secondaryGnb1.cellularNic.rlc.am rlcPduPacketLossDl:mean -nan
scalar MultiCell_withSecondaryGnb.secondaryGnb1.cellularNic.rlc.am rlcPacketLossUl:mean -nan
scalar MultiCell_withSecondaryGnb.secondaryGnb1.cellularNic.rlc.am rlcPacketLossDl:mean -nan
scalar MultiCell_withSecondaryGnb.secondaryGnb1.cellularNic.rlc.am rlcCellPacketLossUl:mean -nan
scalar MultiCell_withSecondaryGnb.secondaryGnb1.cellularNic.rlc.am rlcCellPacketLossDl:mean -nan
scalar MultiCell_withSecondaryGnb.secondaryGnb1.cellularNic.mac avgServedBlocksUl:mean 0.3251
scalar MultiCell_withSecondaryGnb.secondaryGnb1.cellularNic.mac avgServedBlocksDl:mean 0
scalar MultiCell_withSecondaryGnb.secondaryGnb1.cellularNic.mac macCellPacketLossD2D:mean -nan
scalar MultiCell_withSecondaryGnb.secondaryGnb1.cellularNic.mac macCellThroughputD2D:simu5g_rateavg -nan
scalar MultiCell_withSecondaryGnb.secondaryGnb1.cellularNic.mac harqTxAttemptsUl:mean -nan
scalar MultiCell_withSecondaryGnb.secondaryGnb1.cellularNic.mac harqTxAttemptsDl:mean -nan
scalar MultiCell_withSecondaryGnb.secondaryGnb1.cellularNic.mac harqErrorRate_4th_Ul:mean -nan
scalar MultiCell_withSecondaryGnb.secondaryGnb1.cellularNic.mac harqErrorRate_4th_Dl:mean -nan
scalar MultiCell_withSecondaryGnb.secondaryGnb1.cellularNic.mac harqErrorRate_3rd_Ul:mean -nan
scalar MultiCell_withSecondaryGnb.secondaryGnb1.cellularNic.mac harqErrorRate_3rd_Dl:mean -nan
scalar MultiCell_withSecondaryGnb.secondaryGnb1.cellularNic.mac harqErrorRate_2nd_Ul:mean -nan
scalar MultiCell_withSecondaryGnb.secondaryGnb1.cellularNic.mac harqErrorRate_2nd_Dl:mean -nan
scalar MultiCell_withSecondaryGnb.secondaryGnb1.cellularNic.mac harqErrorRate_1st_Ul:mean -nan
scalar MultiCell_withSecondaryGnb.secondaryGnb1.cellularNic.mac harqErrorRate_1st_Dl:mean -nan
scalar MultiCell_withSecondaryGnb.secondaryGnb1.cellularNic.mac harqErrorRateUl:mean -nan
scalar MultiCell_withSecondaryGnb.secondaryGnb1.cellularNic.mac harqErrorRateDl:mean -nan
scalar MultiCell_withSecondaryGnb.secondaryGnb1.cellularNic.mac macCellPacketLossUl:mean 0
scalar MultiCell_withSecondaryGnb.secondaryGnb1.cellularNic.mac macCellPacketLossDl:mean -nan
scalar MultiCell_withSecondaryGnb.secondaryGnb1.cellularNic.mac macPacketLossUl:mean -nan
scalar MultiCell_withSecondaryGnb.secondaryGnb1.cellularNic.mac macPacketLossDl:mean -nan
scalar MultiCell_withSecondaryGnb.secondaryGnb1.cellularNic.mac macThroughputUl:simu5g_rateavg -nan
scalar MultiCell_withSecondaryGnb.secondaryGnb1.cellularNic.mac macThroughputDl:simu5g_rateavg -nan
scalar MultiCell_withSecondaryGnb.secondaryGnb1.cellularNic.mac macDelayUl:mean -nan
scalar MultiCell_withSecondaryGnb.secondaryGnb1.cellularNic.mac macDelayDl:mean -nan
scalar MultiCell_withSecondaryGnb.secondaryGnb1.cellularNic.mac macCellThroughputUl:simu5g_rateavg 73036.487683428088
scalar MultiCell_withSecondaryGnb.secondaryGnb1.cellularNic.mac macCellThroughputDl:simu5g_rateavg -nan
scalar MultiCell_withSecondaryGnb.secondaryGnb1.cellularNic.mac sentPacketToLowerLayer:count 38668
scalar MultiCell_withSecondaryGnb.secondaryGnb1.cellularNic.mac sentPacketToLowerLayer:sum(packetBytes) 38668
scalar MultiCell_withSecondaryGnb.secondaryGnb1.cellularNic.mac sentPacketToUpperLayer:count 13009
scalar MultiCell_withSecondaryGnb.secondaryGnb1.cellularNic.mac sentPacketToUpperLayer:sum(packetBytes) 863839
scalar MultiCell_withSecondaryGnb.secondaryGnb1.cellularNic.mac receivedPacketFromLowerLayer:count 45010
scalar MultiCell_withSecondaryGnb.secondaryGnb1.cellularNic.mac receivedPacketFromLowerLayer:sum(packetBytes) 982056
scalar MultiCell_withSecondaryGnb.secondaryGnb1.cellularNic.mac receivedPacketFromUpperLayer:count 0
scalar MultiCell_withSecondaryGnb.secondaryGnb1.cellularNic.mac receivedPacketFromUpperLayer:sum(packetBytes) 0
scalar MultiCell_withSecondaryGnb.secondaryGnb1.cellularNic.mac macBufferOverFlowD2D:mean -nan
scalar MultiCell_withSecondaryGnb.secondaryGnb1.cellularNic.mac macBufferOverFlowUl:mean -nan
scalar MultiCell_withSecondaryGnb.secondaryGnb1.cellularNic.mac macBufferOverFlowDl:mean -nan
scalar MultiCell_withSecondaryGnb.secondaryGnb1.cellularNic.channelModel[0] measuredSinrUl:mean -nan
scalar MultiCell_withSecondaryGnb.secondaryGnb1.cellularNic.channelModel[0] measuredSinrDl:mean -nan
scalar MultiCell_withSecondaryGnb.secondaryGnb1.cellularNic.channelModel[0] rcvdSinrD2D:mean -nan
scalar MultiCell_withSecondaryGnb.secondaryGnb1.cellularNic.channelModel[0] rcvdSinrUl:mean -nan
scalar MultiCell_withSecondaryGnb.secondaryGnb1.cellularNic.channelModel[0] rcvdSinrDl:mean -nan
scalar MultiCell_withSecondaryGnb.secondaryGnb1.cellularNic packetDropInterfaceDown:count 0
scalar MultiCell_withSecondaryGnb.secondaryGnb1.cellularNic packetDropInterfaceDown:sum(packetBytes) 0
scalar MultiCell_withSecondaryGnb.secondaryGnb1.cellularNic packetDropNoCarrier:count 0
scalar MultiCell_withSecondaryGnb.secondaryGnb1.cellularNic packetDropNoCarrier:sum(packetBytes) 0
scalar MultiCell_withSecondaryGnb.secondaryGnb1.pppIf.queue queueLength:last 0
scalar MultiCell_withSecondaryGnb.secondaryGnb1.pppIf.queue queueLength:max 0
scalar MultiCell_withSecondaryGnb.secondaryGnb1.pppIf.queue queueLength:timeavg 0
scalar MultiCell_withSecondaryGnb.secondaryGnb1.pppIf.queue queueBitLength:last 0
scalar MultiCell_withSecondaryGnb.secondaryGnb1.pppIf.queue queueBitLength:max 0
scalar MultiCell_withSecondaryGnb.secondaryGnb1.pppIf.queue queueBitLength:timeavg 0
scalar MultiCell_withSecondaryGnb.secondaryGnb1.pppIf.queue outgoingPackets:count 0
scalar MultiCell_withSecondaryGnb.secondaryGnb1.pppIf.queue outgoingPacketLengths:sum 0
scalar MultiCell_withSecondaryGnb.secondaryGnb1.pppIf.queue incomingPackets:count 0
scalar MultiCell_withSecondaryGnb.secondaryGnb1.pppIf.queue incomingPacketLengths:sum 0
scalar MultiCell_withSecondaryGnb.secondaryGnb1.pppIf.queue droppedPacketsQueueOverflow:count 0
scalar MultiCell_withSecondaryGnb.secondaryGnb1.pppIf.queue droppedPacketLengthsQueueOverflow:sum 0
scalar MultiCell_withSecondaryGnb.secondaryGnb1.pppIf.ppp transmissionState:timeavg 0
scalar MultiCell_withSecondaryGnb.secondaryGnb1.pppIf.ppp rxPkOk:count 0
scalar MultiCell_withSecondaryGnb.secondaryGnb1.pppIf.ppp rxPkOk:sum(packetBytes) 0
scalar MultiCell_withSecondaryGnb.secondaryGnb1.pppIf.ppp txPk:count 0
scalar MultiCell_withSecondaryGnb.secondaryGnb1.pppIf.ppp txPk:sum(packetBytes) 0
scalar MultiCell_withSecondaryGnb.secondaryGnb1.pppIf.ppp rcvdPkFromHl:count 0
scalar MultiCell_withSecondaryGnb.secondaryGnb1.pppIf.ppp rcvdPkFromHl:sum(packetBytes) 0
scalar MultiCell_withSecondaryGnb.secondaryGnb1.pppIf.ppp passedUpPk:count 0
scalar MultiCell_withSecondaryGnb.secondaryGnb1.pppIf.ppp passedUpPk:sum(packetBytes) 0
scalar MultiCell_withSecondaryGnb.secondaryGnb1.pppIf.ppp packetDropIncorrectlyReceived:count 0
scalar MultiCell_withSecondaryGnb.secondaryGnb1.pppIf.ppp packetDropIncorrectlyReceived:sum(packetBytes) 0
scalar MultiCell_withSecondaryGnb.secondaryGnb1.pppIf.ppp packetDropInterfaceDown:count 0
scalar MultiCell_withSecondaryGnb.secondaryGnb1.pppIf.ppp packetDropInterfaceDown:sum(packetBytes) 0
scalar MultiCell_withSecondaryGnb.secondaryGnb1.pppIf packetDropInterfaceDown:count 0
scalar MultiCell_withSecondaryGnb.secondaryGnb1.pppIf packetDropInterfaceDown:sum(packetBytes) 0
scalar MultiCell_withSecondaryGnb.secondaryGnb1.pppIf packetDropNoCarrier:count 0
scalar MultiCell_withSecondaryGnb.secondaryGnb1.pppIf packetDropNoCarrier:sum(packetBytes) 0
scalar MultiCell_withSecondaryGnb.secondaryGnb1.x2ppp[0].queue queueLength:last 0
scalar MultiCell_withSecondaryGnb.secondaryGnb1.x2ppp[0].queue queueLength:max 14
scalar MultiCell_withSecondaryGnb.secondaryGnb1.x2ppp[0].queue queueLength:timeavg 2.9067359999999748e-06
scalar MultiCell_withSecondaryGnb.secondaryGnb1.x2ppp[0].queue queueBitLength:last 0
scalar MultiCell_withSecondaryGnb.secondaryGnb1.x2ppp[0].queue queueBitLength:max 12992
scalar MultiCell_withSecondaryGnb.secondaryGnb1.x2ppp[0].queue queueBitLength:timeavg 0.0026974510079999497
scalar MultiCell_withSecondaryGnb.secondaryGnb1.x2ppp[0].queue outgoingPackets:count 12141
scalar MultiCell_withSecondaryGnb.secondaryGnb1.x2ppp[0].queue outgoingPacketLengths:sum 11266464
scalar MultiCell_withSecondaryGnb.secondaryGnb1.x2ppp[0].queue incomingPackets:count 12141
scalar MultiCell_withSecondaryGnb.secondaryGnb1.x2ppp[0].queue incomingPacketLengths:sum 11266464
scalar MultiCell_withSecondaryGnb.secondaryGnb1.x2ppp[0].queue droppedPacketsQueueOverflow:count 0
scalar MultiCell_withSecondaryGnb.secondaryGnb1.x2ppp[0].queue droppedPacketLengthsQueueOverflow:sum 0
scalar MultiCell_withSecondaryGnb.secondaryGnb1.x2ppp[0].ppp transmissionState:timeavg 2.3892720000002718e-05
scalar MultiCell_withSecondaryGnb.secondaryGnb1.x2ppp[0].ppp rxPkOk:count 4
scalar MultiCell_withSecondaryGnb.secondaryGnb1.x2ppp[0].ppp rxPkOk:sum(packetBytes) 460
scalar MultiCell_withSecondaryGnb.secondaryGnb1.x2ppp[0].ppp txPk:count 12141
scalar MultiCell_withSecondaryGnb.secondaryGnb1.x2ppp[0].ppp txPk:sum(packetBytes) 1493295
scalar MultiCell_withSecondaryGnb.secondaryGnb1.x2ppp[0].ppp rcvdPkFromHl:count 12141
scalar MultiCell_withSecondaryGnb.secondaryGnb1.x2ppp[0].ppp rcvdPkFromHl:sum(packetBytes) 1408308
scalar MultiCell_withSecondaryGnb.secondaryGnb1.x2ppp[0].ppp passedUpPk:count 4
scalar MultiCell_withSecondaryGnb.secondaryGnb1.x2ppp[0].ppp passedUpPk:sum(packetBytes) 432
scalar MultiCell_withSecondaryGnb.secondaryGnb1.x2ppp[0].ppp packetDropIncorrectlyReceived:count 0
scalar MultiCell_withSecondaryGnb.secondaryGnb1.x2ppp[0].ppp packetDropIncorrectlyReceived:sum(packetBytes) 0
scalar MultiCell_withSecondaryGnb.secondaryGnb1.x2ppp[0].ppp packetDropInterfaceDown:count 0
scalar MultiCell_withSecondaryGnb.secondaryGnb1.x2ppp[0].ppp packetDropInterfaceDown:sum(packetBytes) 0
scalar MultiCell_withSecondaryGnb.secondaryGnb1.x2ppp[0] packetDropInterfaceDown:count 0
scalar MultiCell_withSecondaryGnb.secondaryGnb1.x2ppp[0] packetDropInterfaceDown:sum(packetBytes) 0
scalar MultiCell_withSecondaryGnb.secondaryGnb1.x2ppp[0] packetDropNoCarrier:count 0
scalar MultiCell_withSecondaryGnb.secondaryGnb1.x2ppp[0] packetDropNoCarrier:sum(packetBytes) 0
scalar MultiCell_withSecondaryGnb.secondaryGnb1.pppMEHostIf.queue queueLength:last 0
scalar MultiCell_withSecondaryGnb.secondaryGnb1.pppMEHostIf.queue queueLength:max 0
scalar MultiCell_withSecondaryGnb.secondaryGnb1.pppMEHostIf.queue queueLength:timeavg 0
scalar MultiCell_withSecondaryGnb.secondaryGnb1.pppMEHostIf.queue queueBitLength:last 0
scalar MultiCell_withSecondaryGnb.secondaryGnb1.pppMEHostIf.queue queueBitLength:max 0
scalar MultiCell_withSecondaryGnb.secondaryGnb1.pppMEHostIf.queue queueBitLength:timeavg 0
scalar MultiCell_withSecondaryGnb.secondaryGnb1.pppMEHostIf.queue outgoingPackets:count 0
scalar MultiCell_withSecondaryGnb.secondaryGnb1.pppMEHostIf.queue outgoingPacketLengths:sum 0
scalar MultiCell_withSecondaryGnb.secondaryGnb1.pppMEHostIf.queue incomingPackets:count 0
scalar MultiCell_withSecondaryGnb.secondaryGnb1.pppMEHostIf.queue incomingPacketLengths:sum 0
scalar MultiCell_withSecondaryGnb.secondaryGnb1.pppMEHostIf.queue droppedPacketsQueueOverflow:count 0
scalar MultiCell_withSecondaryGnb.secondaryGnb1.pppMEHostIf.queue droppedPacketLengthsQueueOverflow:sum 0
scalar MultiCell_withSecondaryGnb.secondaryGnb1.pppMEHostIf.ppp transmissionState:timeavg 0
scalar MultiCell_withSecondaryGnb.secondaryGnb1.pppMEHostIf.ppp rxPkOk:count 0
scalar MultiCell_withSecondaryGnb.secondaryGnb1.pppMEHostIf.ppp rxPkOk:sum(packetBytes) 0
scalar MultiCell_withSecondaryGnb.secondaryGnb1.pppMEHostIf.ppp txPk:count 0
scalar MultiCell_withSecondaryGnb.secondaryGnb1.pppMEHostIf.ppp txPk:sum(packetBytes) 0
scalar MultiCell_withSecondaryGnb.secondaryGnb1.pppMEHostIf.ppp rcvdPkFromHl:count 0
scalar MultiCell_withSecondaryGnb.secondaryGnb1.pppMEHostIf.ppp rcvdPkFromHl:sum(packetBytes) 0
scalar MultiCell_withSecondaryGnb.secondaryGnb1.pppMEHostIf.ppp passedUpPk:count 0
scalar MultiCell_withSecondaryGnb.secondaryGnb1.pppMEHostIf.ppp passedUpPk:sum(packetBytes) 0
scalar MultiCell_withSecondaryGnb.secondaryGnb1.pppMEHostIf.ppp packetDropIncorrectlyReceived:count 0
scalar MultiCell_withSecondaryGnb.secondaryGnb1.pppMEHostIf.ppp packetDropIncorrectlyReceived:sum(packetBytes) 0
scalar MultiCell_withSecondaryGnb.secondaryGnb1.pppMEHostIf.ppp packetDropInterfaceDown:count 0
scalar MultiCell_withSecondaryGnb.secondaryGnb1.pppMEHostIf.ppp packetDropInterfaceDown:sum(packetBytes) 0
scalar MultiCell_withSecondaryGnb.secondaryGnb1.pppMEHostIf packetDropInterfaceDown:count 0
scalar MultiCell_withSecondaryGnb.secondaryGnb1.pppMEHostIf packetDropInterfaceDown:sum(packetBytes) 0
scalar MultiCell_withSecondaryGnb.secondaryGnb1.pppMEHostIf packetDropNoCarrier:count 0
scalar MultiCell_withSecondaryGnb.secondaryGnb1.pppMEHostIf packetDropNoCarrier:sum(packetBytes) 0
scalar MultiCell_withSecondaryGnb.secondaryGnb1.ipv4.ip packetDropAddressResolutionFailed:count 0
scalar MultiCell_withSecondaryGnb.secondaryGnb1.ipv4.ip packetDropAddressResolutionFailed:sum(packetBytes) 0
scalar MultiCell_withSecondaryGnb.secondaryGnb1.ipv4.ip packetDropHopLimitReached:count 0
scalar MultiCell_withSecondaryGnb.secondaryGnb1.ipv4.ip packetDropHopLimitReached:sum(packetBytes) 0
scalar MultiCell_withSecondaryGnb.secondaryGnb1.ipv4.ip packetDropForwardingDisabled:count 0
scalar MultiCell_withSecondaryGnb.secondaryGnb1.ipv4.ip packetDropForwardingDisabled:sum(packetBytes) 0
[...]
scalar MultiCell_withSecondaryGnb.masterEnb2.sctp "Number of Non-Revokable Gap Acked Chunks in Last SACK 102:10.0.0.2:sum" 0
scalar MultiCell_withSecondaryGnb.masterEnb2.sctp "Number of Non-Revokable Gap Acked Chunks in Last SACK 102:10.0.0.2:sumweights" 0
scalar MultiCell_withSecondaryGnb.masterEnb2.sctp "Number of Non-Revokable Gap Acked Chunks in Last SACK 102:10.0.0.2:mean" -nan
scalar MultiCell_withSecondaryGnb.masterEnb2.sctp "Number of Non-Revokable Gap Acked Chunks in Last SACK 102:10.0.0.2:stddev" nan
scalar MultiCell_withSecondaryGnb.masterEnb2.sctp "Number of Non-Revokable Gap Acked Chunks in Last SACK 102:10.0.0.2:min" inf
scalar MultiCell_withSecondaryGnb.masterEnb2.sctp "Number of Non-Revokable Gap Acked Chunks in Last SACK 102:10.0.0.2:max" -inf
scalar MultiCell_withSecondaryGnb.masterEnb2.sctp "Number of Non-Revokable Gap Acked Chunks in Last SACK 102:10.0.0.2:starttime" nan
scalar MultiCell_withSecondaryGnb.masterEnb2.sctp "Number of Non-Revokable Gap Acked Chunks in Last SACK 102:10.0.0.2:endtime" nan
scalar MultiCell_withSecondaryGnb.masterEnb2.sctp "Number of Gap Missed Chunks in Last SACK 102:10.0.0.2:count" 0
scalar MultiCell_withSecondaryGnb.masterEnb2.sctp "Number of Gap Missed Chunks in Last SACK 102:10.0.0.2:sum" 0
scalar MultiCell_withSecondaryGnb.masterEnb2.sctp "Number of Gap Missed Chunks in Last SACK 102:10.0.0.2:sumweights" 0
scalar MultiCell_withSecondaryGnb.masterEnb2.sctp "Number of Gap Missed Chunks in Last SACK 102:10.0.0.2:mean" -nan
scalar MultiCell_withSecondaryGnb.masterEnb2.sctp "Number of Gap Missed Chunks in Last SACK 102:10.0.0.2:stddev" nan
scalar MultiCell_withSecondaryGnb.masterEnb2.sctp "Number of Gap Missed Chunks in Last SACK 102:10.0.0.2:min" inf
scalar MultiCell_withSecondaryGnb.masterEnb2.sctp "Number of Gap Missed Chunks in Last SACK 102:10.0.0.2:max" -inf
scalar MultiCell_withSecondaryGnb.masterEnb2.sctp "Number of Gap Missed Chunks in Last SACK 102:10.0.0.2:starttime" nan
scalar MultiCell_withSecondaryGnb.masterEnb2.sctp "Number of Gap Missed Chunks in Last SACK 102:10.0.0.2:endtime" nan
scalar MultiCell_withSecondaryGnb.masterEnb2.sctp "Number of Gap Acked Chunks in Last SACK 102:10.0.2.1:count" 0
scalar MultiCell_withSecondaryGnb.masterEnb2.sctp "Number of Gap Acked Chunks in Last SACK 102:10.0.2.1:sum" 0
scalar MultiCell_withSecondaryGnb.masterEnb2.sctp "Number of Gap Acked Chunks in Last SACK 102:10.0.2.1:sumweights" 0
scalar MultiCell_withSecondaryGnb.masterEnb2.sctp "Number of Gap Acked Chunks in Last SACK 102:10.0.2.1:mean" -nan
scalar MultiCell_withSecondaryGnb.masterEnb2.sctp "Number of Gap Acked Chunks in Last SACK 102:10.0.2.1:stddev" nan
scalar MultiCell_withSecondaryGnb.masterEnb2.sctp "Number of Gap Acked Chunks in Last SACK 102:10.0.2.1:min" inf
scalar MultiCell_withSecondaryGnb.masterEnb2.sctp "Number of Gap Acked Chunks in Last SACK 102:10.0.2.1:max" -inf
scalar MultiCell_withSecondaryGnb.masterEnb2.sctp "Number of Gap Acked Chunks in Last SACK 102:10.0.2.1:starttime" nan
scalar MultiCell_withSecondaryGnb.masterEnb2.sctp "Number of Gap Acked Chunks in Last SACK 102:10.0.2.1:endtime" nan
scalar MultiCell_withSecondaryGnb.masterEnb2.sctp "Number of Non-Revokable Gap Acked Chunks in Last SACK 102:10.0.2.1:count" 0
scalar MultiCell_withSecondaryGnb.masterEnb2.sctp "Number of Non-Revokable Gap Acked Chunks in Last SACK 102:10.0.2.1:sum" 0
scalar MultiCell_withSecondaryGnb.masterEnb2.sctp "Number of Non-Revokable Gap Acked Chunks in Last SACK 102:10.0.2.1:sumweights" 0
scalar MultiCell_withSecondaryGnb.masterEnb2.sctp "Number of Non-Revokable Gap Acked Chunks in Last SACK 102:10.0.2.1:mean" -nan
scalar MultiCell_withSecondaryGnb.masterEnb2.sctp "Number of Non-Revokable Gap Acked Chunks in Last SACK 102:10.0.2.1:stddev" nan
scalar MultiCell_withSecondaryGnb.masterEnb2.sctp "Number of Non-Revokable Gap Acked Chunks in Last SACK 102:10.0.2.1:min" inf
scalar MultiCell_withSecondaryGnb.masterEnb2.sctp "Number of Non-Revokable Gap Acked Chunks in Last SACK 102:10.0.2.1:max" -inf
scalar MultiCell_withSecondaryGnb.masterEnb2.sctp "Number of Non-Revokable Gap Acked Chunks in Last SACK 102:10.0.2.1:starttime" nan
scalar MultiCell_withSecondaryGnb.masterEnb2.sctp "Number of Non-Revokable Gap Acked Chunks in Last SACK 102:10.0.2.1:endtime" nan
scalar MultiCell_withSecondaryGnb.masterEnb2.sctp "Number of Gap Missed Chunks in Last SACK 102:10.0.2.1:count" 0
scalar MultiCell_withSecondaryGnb.masterEnb2.sctp "Number of Gap Missed Chunks in Last SACK 102:10.0.2.1:sum" 0
scalar MultiCell_withSecondaryGnb.masterEnb2.sctp "Number of Gap Missed Chunks in Last SACK 102:10.0.2.1:sumweights" 0
scalar MultiCell_withSecondaryGnb.masterEnb2.sctp "Number of Gap Missed Chunks in Last SACK 102:10.0.2.1:mean" -nan
scalar MultiCell_withSecondaryGnb.masterEnb2.sctp "Number of Gap Missed Chunks in Last SACK 102:10.0.2.1:stddev" nan
scalar MultiCell_withSecondaryGnb.masterEnb2.sctp "Number of Gap Missed Chunks in Last SACK 102:10.0.2.1:min" inf
scalar MultiCell_withSecondaryGnb.masterEnb2.sctp "Number of Gap Missed Chunks in Last SACK 102:10.0.2.1:max" -inf
scalar MultiCell_withSecondaryGnb.masterEnb2.sctp "Number of Gap Missed Chunks in Last SACK 102:10.0.2.1:starttime" nan
scalar MultiCell_withSecondaryGnb.masterEnb2.sctp "Number of Gap Missed Chunks in Last SACK 102:10.0.2.1:endtime" nan
scalar MultiCell_withSecondaryGnb.masterEnb2.sctp "Number of Gap Acked Chunks in Last SACK 102:10.0.3.1:count" 0
scalar MultiCell_withSecondaryGnb.masterEnb2.sctp "Number of Gap Acked Chunks in Last SACK 102:10.0.3.1:sum" 0
scalar MultiCell_withSecondaryGnb.masterEnb2.sctp "Number of Gap Acked Chunks in Last SACK 102:10.0.3.1:sumweights" 0
scalar MultiCell_withSecondaryGnb.masterEnb2.sctp "Number of Gap Acked Chunks in Last SACK 102:10.0.3.1:mean" -nan
scalar MultiCell_withSecondaryGnb.masterEnb2.sctp "Number of Gap Acked Chunks in Last SACK 102:10.0.3.1:stddev" nan
scalar MultiCell_withSecondaryGnb.masterEnb2.sctp "Number of Gap Acked Chunks in Last SACK 102:10.0.3.1:min" inf
scalar MultiCell_withSecondaryGnb.masterEnb2.sctp "Number of Gap Acked Chunks in Last SACK 102:10.0.3.1:max" -inf
scalar MultiCell_withSecondaryGnb.masterEnb2.sctp "Number of Gap Acked Chunks in Last SACK 102:10.0.3.1:starttime" nan
scalar MultiCell_withSecondaryGnb.masterEnb2.sctp "Number of Gap Acked Chunks in Last SACK 102:10.0.3.1:endtime" nan
scalar MultiCell_withSecondaryGnb.masterEnb2.sctp "Number of Non-Revokable Gap Acked Chunks in Last SACK 102:10.0.3.1:count" 0
scalar MultiCell_withSecondaryGnb.masterEnb2.sctp "Number of Non-Revokable Gap Acked Chunks in Last SACK 102:10.0.3.1:sum" 0
scalar MultiCell_withSecondaryGnb.masterEnb2.sctp "Number of Non-Revokable Gap Acked Chunks in Last SACK 102:10.0.3.1:sumweights" 0
scalar MultiCell_withSecondaryGnb.masterEnb2.sctp "Number of Non-Revokable Gap Acked Chunks in Last SACK 102:10.0.3.1:mean" -nan
scalar MultiCell_withSecondaryGnb.masterEnb2.sctp "Number of Non-Revokable Gap Acked Chunks in Last SACK 102:10.0.3.1:stddev" nan
scalar MultiCell_withSecondaryGnb.masterEnb2.sctp "Number of Non-Revokable Gap Acked Chunks in Last SACK 102:10.0.3.1:min" inf
scalar MultiCell_withSecondaryGnb.masterEnb2.sctp "Number of Non-Revokable Gap Acked Chunks in Last SACK 102:10.0.3.1:max" -inf
scalar MultiCell_withSecondaryGnb.masterEnb2.sctp "Number of Non-Revokable Gap Acked Chunks in Last SACK 102:10.0.3.1:starttime" nan
scalar MultiCell_withSecondaryGnb.masterEnb2.sctp "Number of Non-Revokable Gap Acked Chunks in Last SACK 102:10.0.3.1:endtime" nan
scalar MultiCell_withSecondaryGnb.masterEnb2.sctp "Number of Gap Missed Chunks in Last SACK 102:10.0.3.1:count" 0
scalar MultiCell_withSecondaryGnb.masterEnb2.sctp "Number of Gap Missed Chunks in Last SACK 102:10.0.3.1:sum" 0
scalar MultiCell_withSecondaryGnb.masterEnb2.sctp "Number of Gap Missed Chunks in Last SACK 102:10.0.3.1:sumweights" 0
scalar MultiCell_withSecondaryGnb.masterEnb2.sctp "Number of Gap Missed Chunks in Last SACK 102:10.0.3.1:mean" -nan
scalar MultiCell_withSecondaryGnb.masterEnb2.sctp "Number of Gap Missed Chunks in Last SACK 102:10.0.3.1:stddev" nan
scalar MultiCell_withSecondaryGnb.masterEnb2.sctp "Number of Gap Missed Chunks in Last SACK 102:10.0.3.1:min" inf
scalar MultiCell_withSecondaryGnb.masterEnb2.sctp "Number of Gap Missed Chunks in Last SACK 102:10.0.3.1:max" -inf
scalar MultiCell_withSecondaryGnb.masterEnb2.sctp "Number of Gap Missed Chunks in Last SACK 102:10.0.3.1:starttime" nan
scalar MultiCell_withSecondaryGnb.masterEnb2.sctp "Number of Gap Missed Chunks in Last SACK 102:10.0.3.1:endtime" nan
scalar MultiCell_withSecondaryGnb.masterEnb2.sctp "Number of Gap Acked Chunks in Last SACK 102:10.0.4.1:count" 0
scalar MultiCell_withSecondaryGnb.masterEnb2.sctp "Number of Gap Acked Chunks in Last SACK 102:10.0.4.1:sum" 0
scalar MultiCell_withSecondaryGnb.masterEnb2.sctp "Number of Gap Acked Chunks in Last SACK 102:10.0.4.1:sumweights" 0
scalar MultiCell_withSecondaryGnb.masterEnb2.sctp "Number of Gap Acked Chunks in Last SACK 102:10.0.4.1:mean" -nan
scalar MultiCell_withSecondaryGnb.masterEnb2.sctp "Number of Gap Acked Chunks in Last SACK 102:10.0.4.1:stddev" nan
scalar MultiCell_withSecondaryGnb.masterEnb2.sctp "Number of Gap Acked Chunks in Last SACK 102:10.0.4.1:min" inf
scalar MultiCell_withSecondaryGnb.masterEnb2.sctp "Number of Gap Acked Chunks in Last SACK 102:10.0.4.1:max" -inf
scalar MultiCell_withSecondaryGnb.masterEnb2.sctp "Number of Gap Acked Chunks in Last SACK 102:10.0.4.1:starttime" nan
scalar MultiCell_withSecondaryGnb.masterEnb2.sctp "Number of Gap Acked Chunks in Last SACK 102:10.0.4.1:endtime" nan
scalar MultiCell_withSecondaryGnb.masterEnb2.sctp "Number of Non-Revokable Gap Acked Chunks in Last SACK 102:10.0.4.1:count" 0
scalar MultiCell_withSecondaryGnb.masterEnb2.sctp "Number of Non-Revokable Gap Acked Chunks in Last SACK 102:10.0.4.1:sum" 0
scalar MultiCell_withSecondaryGnb.masterEnb2.sctp "Number of Non-Revokable Gap Acked Chunks in Last SACK 102:10.0.4.1:sumweights" 0
scalar MultiCell_withSecondaryGnb.masterEnb2.sctp "Number of Non-Revokable Gap Acked Chunks in Last SACK 102:10.0.4.1:mean" -nan
scalar MultiCell_withSecondaryGnb.masterEnb2.sctp "Number of Non-Revokable Gap Acked Chunks in Last SACK 102:10.0.4.1:stddev" nan
scalar MultiCell_withSecondaryGnb.masterEnb2.sctp "Number of Non-Revokable Gap Acked Chunks in Last SACK 102:10.0.4.1:min" inf
scalar MultiCell_withSecondaryGnb.masterEnb2.sctp "Number of Non-Revokable Gap Acked Chunks in Last SACK 102:10.0.4.1:max" -inf
scalar MultiCell_withSecondaryGnb.masterEnb2.sctp "Number of Non-Revokable Gap Acked Chunks in Last SACK 102:10.0.4.1:starttime" nan
scalar MultiCell_withSecondaryGnb.masterEnb2.sctp "Number of Non-Revokable Gap Acked Chunks in Last SACK 102:10.0.4.1:endtime" nan
scalar MultiCell_withSecondaryGnb.masterEnb2.sctp "Number of Gap Missed Chunks in Last SACK 102:10.0.4.1:count" 0
scalar MultiCell_withSecondaryGnb.masterEnb2.sctp "Number of Gap Missed Chunks in Last SACK 102:10.0.4.1:sum" 0
scalar MultiCell_withSecondaryGnb.masterEnb2.sctp "Number of Gap Missed Chunks in Last SACK 102:10.0.4.1:sumweights" 0
scalar MultiCell_withSecondaryGnb.masterEnb2.sctp "Number of Gap Missed Chunks in Last SACK 102:10.0.4.1:mean" -nan
scalar MultiCell_withSecondaryGnb.masterEnb2.sctp "Number of Gap Missed Chunks in Last SACK 102:10.0.4.1:stddev" nan
scalar MultiCell_withSecondaryGnb.masterEnb2.sctp "Number of Gap Missed Chunks in Last SACK 102:10.0.4.1:min" inf
scalar MultiCell_withSecondaryGnb.masterEnb2.sctp "Number of Gap Missed Chunks in Last SACK 102:10.0.4.1:max" -inf
scalar MultiCell_withSecondaryGnb.masterEnb2.sctp "Number of Gap Missed Chunks in Last SACK 102:10.0.4.1:starttime" nan
scalar MultiCell_withSecondaryGnb.masterEnb2.sctp "Number of Gap Missed Chunks in Last SACK 102:10.0.4.1:endtime" nan
scalar MultiCell_withSecondaryGnb.masterEnb2.sctp "Number of Gap Acked Chunks in Last SACK 102:192.168.3.1:count" 0
scalar MultiCell_withSecondaryGnb.masterEnb2.sctp "Number of Gap Acked Chunks in Last SACK 102:192.168.3.1:sum" 0
scalar MultiCell_withSecondaryGnb.masterEnb2.sctp "Number of Gap Acked Chunks in Last SACK 102:192.168.3.1:sumweights" 0
scalar MultiCell_withSecondaryGnb.masterEnb2.sctp "Number of Gap Acked Chunks in Last SACK 102:192.168.3.1:mean" -nan
scalar MultiCell_withSecondaryGnb.masterEnb2.sctp "Number of Gap Acked Chunks in Last SACK 102:192.168.3.1:stddev" nan
scalar MultiCell_withSecondaryGnb.masterEnb2.sctp "Number of Gap Acked Chunks in Last SACK 102:192.168.3.1:min" inf
scalar MultiCell_withSecondaryGnb.masterEnb2.sctp "Number of Gap Acked Chunks in Last SACK 102:192.168.3.1:max" -inf
scalar MultiCell_withSecondaryGnb.masterEnb2.sctp "Number of Gap Acked Chunks in Last SACK 102:192.168.3.1:starttime" nan
scalar MultiCell_withSecondaryGnb.masterEnb2.sctp "Number of Gap Acked Chunks in Last SACK 102:192.168.3.1:endtime" nan
scalar MultiCell_withSecondaryGnb.masterEnb2.sctp "Number of Non-Revokable Gap Acked Chunks in Last SACK 102:192.168.3.1:count" 0
scalar MultiCell_withSecondaryGnb.masterEnb2.sctp "Number of Non-Revokable Gap Acked Chunks in Last SACK 102:192.168.3.1:sum" 0
scalar MultiCell_withSecondaryGnb.masterEnb2.sctp "Number of Non-Revokable Gap Acked Chunks in Last SACK 102:192.168.3.1:sumweights" 0
scalar MultiCell_withSecondaryGnb.masterEnb2.sctp "Number of Non-Revokable Gap Acked Chunks in Last SACK 102:192.168.3.1:mean" -nan
scalar MultiCell_withSecondaryGnb.masterEnb2.sctp "Number of Non-Revokable Gap Acked Chunks in Last SACK 102:192.168.3.1:stddev" nan
scalar MultiCell_withSecondaryGnb.masterEnb2.sctp "Number of Non-Revokable Gap Acked Chunks in Last SACK 102:192.168.3.1:min" inf
scalar MultiCell_withSecondaryGnb.masterEnb2.sctp "Number of Non-Revokable Gap Acked Chunks in Last SACK 102:192.168.3.1:max" -inf
scalar MultiCell_withSecondaryGnb.masterEnb2.sctp "Number of Non-Revokable Gap Acked Chunks in Last SACK 102:192.168.3.1:starttime" nan
scalar MultiCell_withSecondaryGnb.masterEnb2.sctp "Number of Non-Revokable Gap Acked Chunks in Last SACK 102:192.168.3.1:endtime" nan
scalar MultiCell_withSecondaryGnb.masterEnb2.sctp "Number of Gap Missed Chunks in Last SACK 102:192.168.3.1:count" 0
scalar MultiCell_withSecondaryGnb.masterEnb2.sctp "Number of Gap Missed Chunks in Last SACK 102:192.168.3.1:sum" 0
scalar MultiCell_withSecondaryGnb.masterEnb2.sctp "Number of Gap Missed Chunks in Last SACK 102:192.168.3.1:sumweights" 0
scalar MultiCell_withSecondaryGnb.masterEnb2.sctp "Number of Gap Missed Chunks in Last SACK 102:192.168.3.1:mean" -nan
scalar MultiCell_withSecondaryGnb.masterEnb2.sctp "Number of Gap Missed Chunks in Last SACK 102:192.168.3.1:stddev" nan
scalar MultiCell_withSecondaryGnb.masterEnb2.sctp "Number of Gap Missed Chunks in Last SACK 102:192.168.3.1:min" inf
scalar MultiCell_withSecondaryGnb.masterEnb2.sctp "Number of Gap Missed Chunks in Last SACK 102:192.168.3.1:max" -inf
scalar MultiCell_withSecondaryGnb.masterEnb2.sctp "Number of Gap Missed Chunks in Last SACK 102:192.168.3.1:starttime" nan
scalar MultiCell_withSecondaryGnb.masterEnb2.sctp "Number of Gap Missed Chunks in Last SACK 102:192.168.3.1:endtime" nan
scalar MultiCell_withSecondaryGnb.masterEnb2.sctp "Arwnd in Last SACK 96:count" 0
scalar MultiCell_withSecondaryGnb.masterEnb2.sctp "Arwnd in Last SACK 96:sum" 0
scalar MultiCell_withSecondaryGnb.masterEnb2.sctp "Arwnd in Last SACK 96:sumweights" 0
scalar MultiCell_withSecondaryGnb.masterEnb2.sctp "Arwnd in Last SACK 96:mean" -nan
scalar MultiCell_withSecondaryGnb.masterEnb2.sctp "Arwnd in Last SACK 96:stddev" nan
scalar MultiCell_withSecondaryGnb.masterEnb2.sctp "Arwnd in Last SACK 96:min" inf
scalar MultiCell_withSecondaryGnb.masterEnb2.sctp "Arwnd in Last SACK 96:max" -inf
scalar MultiCell_withSecondaryGnb.masterEnb2.sctp "Arwnd in Last SACK 96:starttime" nan
scalar MultiCell_withSecondaryGnb.masterEnb2.sctp "Arwnd in Last SACK 96:endtime" nan
scalar MultiCell_withSecondaryGnb.masterEnb2.sctp "TSN PseudoCumAck 102:10.0.4.1:count" 0
scalar MultiCell_withSecondaryGnb.masterEnb2.sctp "TSN PseudoCumAck 102:10.0.4.1:sum" 0
scalar MultiCell_withSecondaryGnb.masterEnb2.sctp "TSN PseudoCumAck 102:10.0.4.1:sumweights" 0
scalar MultiCell_withSecondaryGnb.masterEnb2.sctp "TSN PseudoCumAck 102:10.0.4.1:mean" -nan
scalar MultiCell_withSecondaryGnb.masterEnb2.sctp "TSN PseudoCumAck 102:10.0.4.1:stddev" nan
scalar MultiCell_withSecondaryGnb.masterEnb2.sctp "TSN PseudoCumAck 102:10.0.4.1:min" inf
scalar MultiCell_withSecondaryGnb.masterEnb2.sctp "TSN PseudoCumAck 102:10.0.4.1:max" -inf
scalar MultiCell_withSecondaryGnb.masterEnb2.sctp "TSN PseudoCumAck 102:10.0.4.1:starttime" nan
scalar MultiCell_withSecondaryGnb.masterEnb2.sctp "TSN PseudoCumAck 102:10.0.4.1:endtime" nan
scalar MultiCell_withSecondaryGnb.masterEnb2.sctp "TSN RTXPseudoCumAck 102:10.0.4.1:count" 0
scalar MultiCell_withSecondaryGnb.masterEnb2.sctp "TSN RTXPseudoCumAck 102:10.0.4.1:sum" 0
scalar MultiCell_withSecondaryGnb.masterEnb2.sctp "TSN RTXPseudoCumAck 102:10.0.4.1:sumweights" 0
scalar MultiCell_withSecondaryGnb.masterEnb2.sctp "TSN RTXPseudoCumAck 102:10.0.4.1:mean" -nan
scalar MultiCell_withSecondaryGnb.masterEnb2.sctp "TSN RTXPseudoCumAck 102:10.0.4.1:stddev" nan
scalar MultiCell_withSecondaryGnb.masterEnb2.sctp "TSN RTXPseudoCumAck 102:10.0.4.1:min" inf
scalar MultiCell_withSecondaryGnb.masterEnb2.sctp "TSN RTXPseudoCumAck 102:10.0.4.1:max" -inf
scalar MultiCell_withSecondaryGnb.masterEnb2.sctp "TSN RTXPseudoCumAck 102:10.0.4.1:starttime" nan
scalar MultiCell_withSecondaryGnb.masterEnb2.sctp "TSN RTXPseudoCumAck 102:10.0.4.1:endtime" nan
scalar MultiCell_withSecondaryGnb.masterEnb2.sctp "Partial Bytes Acked 102:10.0.4.1:count" 0
scalar MultiCell_withSecondaryGnb.masterEnb2.sctp "Partial Bytes Acked 102:10.0.4.1:sum" 0
scalar MultiCell_withSecondaryGnb.masterEnb2.sctp "Partial Bytes Acked 102:10.0.4.1:sumweights" 0
scalar MultiCell_withSecondaryGnb.masterEnb2.sctp "Partial Bytes Acked 102:10.0.4.1:mean" -nan
scalar MultiCell_withSecondaryGnb.masterEnb2.sctp "Partial Bytes Acked 102:10.0.4.1:stddev" nan
scalar MultiCell_withSecondaryGnb.masterEnb2.sctp "Partial Bytes Acked 102:10.0.4.1:min" inf
scalar MultiCell_withSecondaryGnb.masterEnb2.sctp "Partial Bytes Acked 102:10.0.4.1:max" -inf
scalar MultiCell_withSecondaryGnb.masterEnb2.sctp "Partial Bytes Acked 102:10.0.4.1:starttime" nan
scalar MultiCell_withSecondaryGnb.masterEnb2.sctp "Partial Bytes Acked 102:10.0.4.1:endtime" nan
scalar MultiCell_withSecondaryGnb.masterEnb1.sctp "Stream 0 Throughput:count" 0
scalar MultiCell_withSecondaryGnb.masterEnb1.sctp "Stream 0 Throughput:sum" 0
scalar MultiCell_withSecondaryGnb.masterEnb1.sctp "Stream 0 Throughput:sumweights" 0
scalar MultiCell_withSecondaryGnb.masterEnb1.sctp "Stream 0 Throughput:mean" -nan
scalar MultiCell_withSecondaryGnb.masterEnb1.sctp "Stream 0 Throughput:stddev" nan
scalar MultiCell_withSecondaryGnb.masterEnb1.sctp "Stream 0 Throughput:min" inf
scalar MultiCell_withSecondaryGnb.masterEnb1.sctp "Stream 0 Throughput:max" -inf
scalar MultiCell_withSecondaryGnb.masterEnb1.sctp "Stream 0 Throughput:starttime" nan
scalar MultiCell_withSecondaryGnb.masterEnb1.sctp "Stream 0 Throughput:endtime" nan
scalar MultiCell_withSecondaryGnb.masterEnb2.sctp "Stream 0 Throughput:count" 0
scalar MultiCell_withSecondaryGnb.masterEnb2.sctp "Stream 0 Throughput:sum" 0
scalar MultiCell_withSecondaryGnb.masterEnb2.sctp "Stream 0 Throughput:sumweights" 0
scalar MultiCell_withSecondaryGnb.masterEnb2.sctp "Stream 0 Throughput:mean" -nan
scalar MultiCell_withSecondaryGnb.masterEnb2.sctp "Stream 0 Throughput:stddev" nan
scalar MultiCell_withSecondaryGnb.masterEnb2.sctp "Stream 0 Throughput:min" inf
scalar MultiCell_withSecondaryGnb.masterEnb2.sctp "Stream 0 Throughput:max" -inf
scalar MultiCell_withSecondaryGnb.masterEnb2.sctp "Stream 0 Throughput:starttime" nan
scalar MultiCell_withSecondaryGnb.masterEnb2.sctp "Stream 0 Throughput:endtime" nan

