version 3
run X2-MeshTopology-0-20260710-11:03:24-692042
attr configname X2-MeshTopology
attr datetime 20260710-11:03:24
attr datetimef 20260710-110324
attr experiment X2-MeshTopology
attr inifile omnetpp.ini
attr iterationvars "$sched=\"MAXCI\", $comp=false"
attr iterationvarsd sched=MAXCI/comp=false
attr iterationvarsf sched=MAXCI,comp=false-
attr measurement "$sched=\"MAXCI\", $comp=false"
attr network simu5g.simulations.lte.networks.MultiCell_X2Mesh
attr processid 692042
attr repetition 0
attr replication #0
attr resultdir results
attr runnumber 0
attr seedset 0
itervar comp false
itervar sched "\"MAXCI\""
config **.param-recording false
config image-path /home/andras/projects/Simu5G-fork/simu5g-fork/images
config output-scalar-file results/omnetpp.ini-X2-MeshTopology-#0.sca
config output-scalar-precision 17
config output-vector-file results/omnetpp.ini-X2-MeshTopology-#0.vec
config output-vector-precision 17
config record-eventlog false
config sim-time-limit 20s
config *.eNodeB1.x2App[0].client.connectAddress "\"eNodeB2%x2ppp0\""
config *.eNodeB1.x2App[1].client.connectAddress "\"eNodeB3%x2ppp0\""
config *.eNodeB2.x2App[0].client.connectAddress "\"eNodeB1%x2ppp0\""
config *.eNodeB2.x2App[1].client.connectAddress "\"eNodeB3%x2ppp1\""
config *.eNodeB3.x2App[0].client.connectAddress "\"eNodeB1%x2ppp1\""
config *.eNodeB3.x2App[1].client.connectAddress "\"eNodeB2%x2ppp1\""
config sim-time-limit 20s
config repeat 5
config network simu5g.simulations.lte.networks.MultiCell_X2Mesh
config **.routingRecorder.enabled false
config **.sctp.**.scalar-recording false
config **.sctp.**.vector-recording false
config **.vector-recording false
config **.cellularNic.channelModel[0].downlinkInterference true
config **.mobility.constraintAreaMinZ 0m
config **.mobility.constraintAreaMaxZ 0m
config **.mobility.initFromDisplayString false
config **.ueTxPower 26dBm
config **.eNodeBTxPower 40dBm
config **.rbAllocationType "\"localized\""
config **.numBands 25
config *.configurator.config "xmldoc(\"./demo.xml\")"
config **.sctp.nagleEnabled false
config **.sctp.enableHeartbeats false
config **.mac.schedulingDisciplineDl "\"MAXCI\""
config *.eNodeB1.mobility.initialX 856m
config *.eNodeB1.mobility.initialY 750m
config *.eNodeB2.mobility.initialX 856m
config *.eNodeB2.mobility.initialY 1250m
config *.eNodeB3.mobility.initialX 1289m
config *.eNodeB3.mobility.initialY 1000m
config *.eNodeB*.cellularNic.phy.txDirection "\"ANISOTROPIC\""
config *.eNodeB1.cellularNic.phy.txAngle 60deg
config *.eNodeB2.cellularNic.phy.txAngle 300deg
config *.eNodeB3.cellularNic.phy.txAngle 180deg
config *.ue*[*].numApps 1
config *.ue*[*].app[*].typename VoipReceiver
config *.server.app[*].typename VoipSender
config *.server.app[*].localPort 3088+ancestorIndex(0)
config *.server.app[*].startTime uniform(0s,0.02s)
config **.ue1[*].macCellId 1
config **.ue1[*].masterId 1
config **.ue2[*].macCellId 2
config **.ue2[*].masterId 2
config **.ue3[*].macCellId 3
config **.ue3[*].masterId 3
config *.eNodeB*.numX2Apps 2
config *.eNodeB*.x2App[*].server.localPort "5000 + ancestorIndex(1)"
config *.eNodeB*.cellularNic.compEnabled false
config *.eNodeB1.cellularNic.compManager.compNodeType "\"COMP_CLIENT_COORDINATOR\""
config *.eNodeB1.cellularNic.compManager.clientList "[2, 3]"
config *.eNodeB*.cellularNic.compManager.coordinatorId 1
config constraint "($comp==false && $sched==\"MAXCI\") || ($comp==true && $sched==\"MAXCI_COMP\")"
config output-scalar-file results/X2-MeshTopology/comp=false-0.sca
config output-vector-file results/X2-MeshTopology/comp=false-0.vec
config seed-set 0

scalar MultiCell_X2Mesh.eNodeB1.x2App[0].client ums 1452
scalar MultiCell_X2Mesh.eNodeB1.x2App[1].client ums 1452
scalar MultiCell_X2Mesh.eNodeB2.x2App[0].client ums 1452
scalar MultiCell_X2Mesh.eNodeB2.x2App[1].client ums 1452
scalar MultiCell_X2Mesh.eNodeB3.x2App[0].client ums 1452
scalar MultiCell_X2Mesh.eNodeB3.x2App[1].client ums 1452
scalar MultiCell_X2Mesh.server.lo[0].lo rcvdPkFromHl:count 0
scalar MultiCell_X2Mesh.server.lo[0].lo rcvdPkFromHl:sum(packetBytes) 0
scalar MultiCell_X2Mesh.server.lo[0].lo passedUpPk:count 0
scalar MultiCell_X2Mesh.server.lo[0].lo passedUpPk:sum(packetBytes) 0
scalar MultiCell_X2Mesh.server.lo[0] packetDropInterfaceDown:count 0
scalar MultiCell_X2Mesh.server.lo[0] packetDropInterfaceDown:sum(packetBytes) 0
scalar MultiCell_X2Mesh.server.lo[0] packetDropNoCarrier:count 0
scalar MultiCell_X2Mesh.server.lo[0] packetDropNoCarrier:sum(packetBytes) 0
scalar MultiCell_X2Mesh.server.ppp[0].queue queueLength:last 0
scalar MultiCell_X2Mesh.server.ppp[0].queue queueLength:max 0
scalar MultiCell_X2Mesh.server.ppp[0].queue queueLength:timeavg 0
scalar MultiCell_X2Mesh.server.ppp[0].queue queueBitLength:last 0
scalar MultiCell_X2Mesh.server.ppp[0].queue queueBitLength:max 0
scalar MultiCell_X2Mesh.server.ppp[0].queue queueBitLength:timeavg 0
scalar MultiCell_X2Mesh.server.ppp[0].queue outgoingPackets:count 0
scalar MultiCell_X2Mesh.server.ppp[0].queue outgoingPacketLengths:sum 0
scalar MultiCell_X2Mesh.server.ppp[0].queue incomingPackets:count 0
scalar MultiCell_X2Mesh.server.ppp[0].queue incomingPacketLengths:sum 0
scalar MultiCell_X2Mesh.server.ppp[0].queue droppedPacketsQueueOverflow:count 0
scalar MultiCell_X2Mesh.server.ppp[0].queue droppedPacketLengthsQueueOverflow:sum 0
scalar MultiCell_X2Mesh.server.ppp[0].ppp transmissionState:timeavg 0
scalar MultiCell_X2Mesh.server.ppp[0].ppp rxPkOk:count 0
scalar MultiCell_X2Mesh.server.ppp[0].ppp rxPkOk:sum(packetBytes) 0
scalar MultiCell_X2Mesh.server.ppp[0].ppp txPk:count 0
scalar MultiCell_X2Mesh.server.ppp[0].ppp txPk:sum(packetBytes) 0
scalar MultiCell_X2Mesh.server.ppp[0].ppp rcvdPkFromHl:count 0
scalar MultiCell_X2Mesh.server.ppp[0].ppp rcvdPkFromHl:sum(packetBytes) 0
scalar MultiCell_X2Mesh.server.ppp[0].ppp passedUpPk:count 0
scalar MultiCell_X2Mesh.server.ppp[0].ppp passedUpPk:sum(packetBytes) 0
scalar MultiCell_X2Mesh.server.ppp[0].ppp packetDropIncorrectlyReceived:count 0
scalar MultiCell_X2Mesh.server.ppp[0].ppp packetDropIncorrectlyReceived:sum(packetBytes) 0
scalar MultiCell_X2Mesh.server.ppp[0].ppp packetDropInterfaceDown:count 0
scalar MultiCell_X2Mesh.server.ppp[0].ppp packetDropInterfaceDown:sum(packetBytes) 0
scalar MultiCell_X2Mesh.server.ppp[0] packetDropInterfaceDown:count 0
scalar MultiCell_X2Mesh.server.ppp[0] packetDropInterfaceDown:sum(packetBytes) 0
scalar MultiCell_X2Mesh.server.ppp[0] packetDropNoCarrier:count 0
scalar MultiCell_X2Mesh.server.ppp[0] packetDropNoCarrier:sum(packetBytes) 0
scalar MultiCell_X2Mesh.server.ipv4.ip packetDropAddressResolutionFailed:count 0
scalar MultiCell_X2Mesh.server.ipv4.ip packetDropAddressResolutionFailed:sum(packetBytes) 0
scalar MultiCell_X2Mesh.server.ipv4.ip packetDropHopLimitReached:count 0
scalar MultiCell_X2Mesh.server.ipv4.ip packetDropHopLimitReached:sum(packetBytes) 0
scalar MultiCell_X2Mesh.server.ipv4.ip packetDropForwardingDisabled:count 0
scalar MultiCell_X2Mesh.server.ipv4.ip packetDropForwardingDisabled:sum(packetBytes) 0
scalar MultiCell_X2Mesh.server.ipv4.ip packetDropNoInterfaceFound:count 0
scalar MultiCell_X2Mesh.server.ipv4.ip packetDropNoInterfaceFound:sum(packetBytes) 0
scalar MultiCell_X2Mesh.server.ipv4.ip packetDropNoRouteFound:count 0
scalar MultiCell_X2Mesh.server.ipv4.ip packetDropNoRouteFound:sum(packetBytes) 0
scalar MultiCell_X2Mesh.server.ipv4.ip packetDropUndefined:count 0
scalar MultiCell_X2Mesh.server.ipv4.ip packetDropUndefined:sum(packetBytes) 0
scalar MultiCell_X2Mesh.server.ipv4.arp arpResolutionFailed:count 0
scalar MultiCell_X2Mesh.server.ipv4.arp arpResolutionCompleted:count 0
scalar MultiCell_X2Mesh.server.ipv4.arp arpResolutionInitiated:count 0
scalar MultiCell_X2Mesh.server.ipv4.arp arpReplySent:count 0
scalar MultiCell_X2Mesh.server.ipv4.arp arpReplySent:sum(packetBytes) 0
scalar MultiCell_X2Mesh.server.ipv4.arp arpRequestSent:count 0
scalar MultiCell_X2Mesh.server.ipv4.arp arpRequestSent:sum(packetBytes) 0
scalar MultiCell_X2Mesh.server.udp packetReceived:count 0
scalar MultiCell_X2Mesh.server.udp packetReceived:sum(packetBytes) 0
scalar MultiCell_X2Mesh.server.udp packetSent:count 0
scalar MultiCell_X2Mesh.server.udp packetSent:sum(packetBytes) 0
scalar MultiCell_X2Mesh.server.udp passedUpPk:count 0
scalar MultiCell_X2Mesh.server.udp droppedPkWrongPort:count 0
scalar MultiCell_X2Mesh.server.udp droppedPkBadChecksum:count 0
scalar MultiCell_X2Mesh.pgw.lo[0].lo rcvdPkFromHl:count 0
scalar MultiCell_X2Mesh.pgw.lo[0].lo rcvdPkFromHl:sum(packetBytes) 0
scalar MultiCell_X2Mesh.pgw.lo[0].lo passedUpPk:count 0
scalar MultiCell_X2Mesh.pgw.lo[0].lo passedUpPk:sum(packetBytes) 0
scalar MultiCell_X2Mesh.pgw.lo[0] packetDropInterfaceDown:count 0
scalar MultiCell_X2Mesh.pgw.lo[0] packetDropInterfaceDown:sum(packetBytes) 0
scalar MultiCell_X2Mesh.pgw.lo[0] packetDropNoCarrier:count 0
scalar MultiCell_X2Mesh.pgw.lo[0] packetDropNoCarrier:sum(packetBytes) 0
scalar MultiCell_X2Mesh.pgw.ppp[0].queue queueLength:last 0
scalar MultiCell_X2Mesh.pgw.ppp[0].queue queueLength:max 0
scalar MultiCell_X2Mesh.pgw.ppp[0].queue queueLength:timeavg 0
scalar MultiCell_X2Mesh.pgw.ppp[0].queue queueBitLength:last 0
scalar MultiCell_X2Mesh.pgw.ppp[0].queue queueBitLength:max 0
scalar MultiCell_X2Mesh.pgw.ppp[0].queue queueBitLength:timeavg 0
scalar MultiCell_X2Mesh.pgw.ppp[0].queue outgoingPackets:count 0
scalar MultiCell_X2Mesh.pgw.ppp[0].queue outgoingPacketLengths:sum 0
scalar MultiCell_X2Mesh.pgw.ppp[0].queue incomingPackets:count 0
scalar MultiCell_X2Mesh.pgw.ppp[0].queue incomingPacketLengths:sum 0
scalar MultiCell_X2Mesh.pgw.ppp[0].queue droppedPacketsQueueOverflow:count 0
scalar MultiCell_X2Mesh.pgw.ppp[0].queue droppedPacketLengthsQueueOverflow:sum 0
scalar MultiCell_X2Mesh.pgw.ppp[0].ppp transmissionState:timeavg 0
scalar MultiCell_X2Mesh.pgw.ppp[0].ppp rxPkOk:count 0
scalar MultiCell_X2Mesh.pgw.ppp[0].ppp rxPkOk:sum(packetBytes) 0
scalar MultiCell_X2Mesh.pgw.ppp[0].ppp txPk:count 0
scalar MultiCell_X2Mesh.pgw.ppp[0].ppp txPk:sum(packetBytes) 0
scalar MultiCell_X2Mesh.pgw.ppp[0].ppp rcvdPkFromHl:count 0
scalar MultiCell_X2Mesh.pgw.ppp[0].ppp rcvdPkFromHl:sum(packetBytes) 0
scalar MultiCell_X2Mesh.pgw.ppp[0].ppp passedUpPk:count 0
scalar MultiCell_X2Mesh.pgw.ppp[0].ppp passedUpPk:sum(packetBytes) 0
scalar MultiCell_X2Mesh.pgw.ppp[0].ppp packetDropIncorrectlyReceived:count 0
scalar MultiCell_X2Mesh.pgw.ppp[0].ppp packetDropIncorrectlyReceived:sum(packetBytes) 0
scalar MultiCell_X2Mesh.pgw.ppp[0].ppp packetDropInterfaceDown:count 0
scalar MultiCell_X2Mesh.pgw.ppp[0].ppp packetDropInterfaceDown:sum(packetBytes) 0
scalar MultiCell_X2Mesh.pgw.ppp[0] packetDropInterfaceDown:count 0
scalar MultiCell_X2Mesh.pgw.ppp[0] packetDropInterfaceDown:sum(packetBytes) 0
scalar MultiCell_X2Mesh.pgw.ppp[0] packetDropNoCarrier:count 0
scalar MultiCell_X2Mesh.pgw.ppp[0] packetDropNoCarrier:sum(packetBytes) 0
scalar MultiCell_X2Mesh.pgw.ppp[1].queue queueLength:last 0
scalar MultiCell_X2Mesh.pgw.ppp[1].queue queueLength:max 0
scalar MultiCell_X2Mesh.pgw.ppp[1].queue queueLength:timeavg 0
scalar MultiCell_X2Mesh.pgw.ppp[1].queue queueBitLength:last 0
scalar MultiCell_X2Mesh.pgw.ppp[1].queue queueBitLength:max 0
scalar MultiCell_X2Mesh.pgw.ppp[1].queue queueBitLength:timeavg 0
scalar MultiCell_X2Mesh.pgw.ppp[1].queue outgoingPackets:count 0
scalar MultiCell_X2Mesh.pgw.ppp[1].queue outgoingPacketLengths:sum 0
scalar MultiCell_X2Mesh.pgw.ppp[1].queue incomingPackets:count 0
scalar MultiCell_X2Mesh.pgw.ppp[1].queue incomingPacketLengths:sum 0
scalar MultiCell_X2Mesh.pgw.ppp[1].queue droppedPacketsQueueOverflow:count 0
scalar MultiCell_X2Mesh.pgw.ppp[1].queue droppedPacketLengthsQueueOverflow:sum 0
scalar MultiCell_X2Mesh.pgw.ppp[1].ppp transmissionState:timeavg 0
scalar MultiCell_X2Mesh.pgw.ppp[1].ppp rxPkOk:count 0
scalar MultiCell_X2Mesh.pgw.ppp[1].ppp rxPkOk:sum(packetBytes) 0
scalar MultiCell_X2Mesh.pgw.ppp[1].ppp txPk:count 0
scalar MultiCell_X2Mesh.pgw.ppp[1].ppp txPk:sum(packetBytes) 0
scalar MultiCell_X2Mesh.pgw.ppp[1].ppp rcvdPkFromHl:count 0
scalar MultiCell_X2Mesh.pgw.ppp[1].ppp rcvdPkFromHl:sum(packetBytes) 0
scalar MultiCell_X2Mesh.pgw.ppp[1].ppp passedUpPk:count 0
scalar MultiCell_X2Mesh.pgw.ppp[1].ppp passedUpPk:sum(packetBytes) 0
scalar MultiCell_X2Mesh.pgw.ppp[1].ppp packetDropIncorrectlyReceived:count 0
scalar MultiCell_X2Mesh.pgw.ppp[1].ppp packetDropIncorrectlyReceived:sum(packetBytes) 0
scalar MultiCell_X2Mesh.pgw.ppp[1].ppp packetDropInterfaceDown:count 0
scalar MultiCell_X2Mesh.pgw.ppp[1].ppp packetDropInterfaceDown:sum(packetBytes) 0
scalar MultiCell_X2Mesh.pgw.ppp[1] packetDropInterfaceDown:count 0
scalar MultiCell_X2Mesh.pgw.ppp[1] packetDropInterfaceDown:sum(packetBytes) 0
scalar MultiCell_X2Mesh.pgw.ppp[1] packetDropNoCarrier:count 0
scalar MultiCell_X2Mesh.pgw.ppp[1] packetDropNoCarrier:sum(packetBytes) 0
scalar MultiCell_X2Mesh.pgw.ppp[2].queue queueLength:last 0
scalar MultiCell_X2Mesh.pgw.ppp[2].queue queueLength:max 0
scalar MultiCell_X2Mesh.pgw.ppp[2].queue queueLength:timeavg 0
scalar MultiCell_X2Mesh.pgw.ppp[2].queue queueBitLength:last 0
scalar MultiCell_X2Mesh.pgw.ppp[2].queue queueBitLength:max 0
scalar MultiCell_X2Mesh.pgw.ppp[2].queue queueBitLength:timeavg 0
scalar MultiCell_X2Mesh.pgw.ppp[2].queue outgoingPackets:count 0
scalar MultiCell_X2Mesh.pgw.ppp[2].queue outgoingPacketLengths:sum 0
scalar MultiCell_X2Mesh.pgw.ppp[2].queue incomingPackets:count 0
scalar MultiCell_X2Mesh.pgw.ppp[2].queue incomingPacketLengths:sum 0
scalar MultiCell_X2Mesh.pgw.ppp[2].queue droppedPacketsQueueOverflow:count 0
scalar MultiCell_X2Mesh.pgw.ppp[2].queue droppedPacketLengthsQueueOverflow:sum 0
scalar MultiCell_X2Mesh.pgw.ppp[2].ppp transmissionState:timeavg 0
scalar MultiCell_X2Mesh.pgw.ppp[2].ppp rxPkOk:count 0
scalar MultiCell_X2Mesh.pgw.ppp[2].ppp rxPkOk:sum(packetBytes) 0
scalar MultiCell_X2Mesh.pgw.ppp[2].ppp txPk:count 0
scalar MultiCell_X2Mesh.pgw.ppp[2].ppp txPk:sum(packetBytes) 0
scalar MultiCell_X2Mesh.pgw.ppp[2].ppp rcvdPkFromHl:count 0
scalar MultiCell_X2Mesh.pgw.ppp[2].ppp rcvdPkFromHl:sum(packetBytes) 0
scalar MultiCell_X2Mesh.pgw.ppp[2].ppp passedUpPk:count 0
scalar MultiCell_X2Mesh.pgw.ppp[2].ppp passedUpPk:sum(packetBytes) 0
scalar MultiCell_X2Mesh.pgw.ppp[2].ppp packetDropIncorrectlyReceived:count 0
scalar MultiCell_X2Mesh.pgw.ppp[2].ppp packetDropIncorrectlyReceived:sum(packetBytes) 0
scalar MultiCell_X2Mesh.pgw.ppp[2].ppp packetDropInterfaceDown:count 0
scalar MultiCell_X2Mesh.pgw.ppp[2].ppp packetDropInterfaceDown:sum(packetBytes) 0
scalar MultiCell_X2Mesh.pgw.ppp[2] packetDropInterfaceDown:count 0
scalar MultiCell_X2Mesh.pgw.ppp[2] packetDropInterfaceDown:sum(packetBytes) 0
scalar MultiCell_X2Mesh.pgw.ppp[2] packetDropNoCarrier:count 0
scalar MultiCell_X2Mesh.pgw.ppp[2] packetDropNoCarrier:sum(packetBytes) 0
scalar MultiCell_X2Mesh.pgw.ipv4.ip packetDropAddressResolutionFailed:count 0
scalar MultiCell_X2Mesh.pgw.ipv4.ip packetDropAddressResolutionFailed:sum(packetBytes) 0
scalar MultiCell_X2Mesh.pgw.ipv4.ip packetDropHopLimitReached:count 0
scalar MultiCell_X2Mesh.pgw.ipv4.ip packetDropHopLimitReached:sum(packetBytes) 0
scalar MultiCell_X2Mesh.pgw.ipv4.ip packetDropForwardingDisabled:count 0
scalar MultiCell_X2Mesh.pgw.ipv4.ip packetDropForwardingDisabled:sum(packetBytes) 0
scalar MultiCell_X2Mesh.pgw.ipv4.ip packetDropNoInterfaceFound:count 0
scalar MultiCell_X2Mesh.pgw.ipv4.ip packetDropNoInterfaceFound:sum(packetBytes) 0
scalar MultiCell_X2Mesh.pgw.ipv4.ip packetDropNoRouteFound:count 0
scalar MultiCell_X2Mesh.pgw.ipv4.ip packetDropNoRouteFound:sum(packetBytes) 0
scalar MultiCell_X2Mesh.pgw.ipv4.ip packetDropUndefined:count 0
scalar MultiCell_X2Mesh.pgw.ipv4.ip packetDropUndefined:sum(packetBytes) 0
scalar MultiCell_X2Mesh.pgw.ipv4.arp arpResolutionFailed:count 0
scalar MultiCell_X2Mesh.pgw.ipv4.arp arpResolutionCompleted:count 0
scalar MultiCell_X2Mesh.pgw.ipv4.arp arpResolutionInitiated:count 0
scalar MultiCell_X2Mesh.pgw.ipv4.arp arpReplySent:count 0
scalar MultiCell_X2Mesh.pgw.ipv4.arp arpReplySent:sum(packetBytes) 0
scalar MultiCell_X2Mesh.pgw.ipv4.arp arpRequestSent:count 0
scalar MultiCell_X2Mesh.pgw.ipv4.arp arpRequestSent:sum(packetBytes) 0
scalar MultiCell_X2Mesh.pgw.pppIf.queue queueLength:last 0
scalar MultiCell_X2Mesh.pgw.pppIf.queue queueLength:max 0
scalar MultiCell_X2Mesh.pgw.pppIf.queue queueLength:timeavg 0
scalar MultiCell_X2Mesh.pgw.pppIf.queue queueBitLength:last 0
scalar MultiCell_X2Mesh.pgw.pppIf.queue queueBitLength:max 0
scalar MultiCell_X2Mesh.pgw.pppIf.queue queueBitLength:timeavg 0
scalar MultiCell_X2Mesh.pgw.pppIf.queue outgoingPackets:count 0
scalar MultiCell_X2Mesh.pgw.pppIf.queue outgoingPacketLengths:sum 0
scalar MultiCell_X2Mesh.pgw.pppIf.queue incomingPackets:count 0
scalar MultiCell_X2Mesh.pgw.pppIf.queue incomingPacketLengths:sum 0
scalar MultiCell_X2Mesh.pgw.pppIf.queue droppedPacketsQueueOverflow:count 0
scalar MultiCell_X2Mesh.pgw.pppIf.queue droppedPacketLengthsQueueOverflow:sum 0
scalar MultiCell_X2Mesh.pgw.pppIf.ppp transmissionState:timeavg 0
scalar MultiCell_X2Mesh.pgw.pppIf.ppp rxPkOk:count 0
scalar MultiCell_X2Mesh.pgw.pppIf.ppp rxPkOk:sum(packetBytes) 0
scalar MultiCell_X2Mesh.pgw.pppIf.ppp txPk:count 0
scalar MultiCell_X2Mesh.pgw.pppIf.ppp txPk:sum(packetBytes) 0
scalar MultiCell_X2Mesh.pgw.pppIf.ppp rcvdPkFromHl:count 0
scalar MultiCell_X2Mesh.pgw.pppIf.ppp rcvdPkFromHl:sum(packetBytes) 0
scalar MultiCell_X2Mesh.pgw.pppIf.ppp passedUpPk:count 0
scalar MultiCell_X2Mesh.pgw.pppIf.ppp passedUpPk:sum(packetBytes) 0
scalar MultiCell_X2Mesh.pgw.pppIf.ppp packetDropIncorrectlyReceived:count 0
scalar MultiCell_X2Mesh.pgw.pppIf.ppp packetDropIncorrectlyReceived:sum(packetBytes) 0
scalar MultiCell_X2Mesh.pgw.pppIf.ppp packetDropInterfaceDown:count 0
scalar MultiCell_X2Mesh.pgw.pppIf.ppp packetDropInterfaceDown:sum(packetBytes) 0
scalar MultiCell_X2Mesh.pgw.pppIf packetDropInterfaceDown:count 0
scalar MultiCell_X2Mesh.pgw.pppIf packetDropInterfaceDown:sum(packetBytes) 0
scalar MultiCell_X2Mesh.pgw.pppIf packetDropNoCarrier:count 0
scalar MultiCell_X2Mesh.pgw.pppIf packetDropNoCarrier:sum(packetBytes) 0
scalar MultiCell_X2Mesh.pgw.udp packetReceived:count 0
scalar MultiCell_X2Mesh.pgw.udp packetReceived:sum(packetBytes) 0
scalar MultiCell_X2Mesh.pgw.udp packetSent:count 0
scalar MultiCell_X2Mesh.pgw.udp packetSent:sum(packetBytes) 0
scalar MultiCell_X2Mesh.pgw.udp passedUpPk:count 0
scalar MultiCell_X2Mesh.pgw.udp droppedPkWrongPort:count 0
scalar MultiCell_X2Mesh.pgw.udp droppedPkBadChecksum:count 0
scalar MultiCell_X2Mesh.router1.lo[0].lo rcvdPkFromHl:count 0
scalar MultiCell_X2Mesh.router1.lo[0].lo rcvdPkFromHl:sum(packetBytes) 0
scalar MultiCell_X2Mesh.router1.lo[0].lo passedUpPk:count 0
scalar MultiCell_X2Mesh.router1.lo[0].lo passedUpPk:sum(packetBytes) 0
scalar MultiCell_X2Mesh.router1.lo[0] packetDropInterfaceDown:count 0
scalar MultiCell_X2Mesh.router1.lo[0] packetDropInterfaceDown:sum(packetBytes) 0
scalar MultiCell_X2Mesh.router1.lo[0] packetDropNoCarrier:count 0
scalar MultiCell_X2Mesh.router1.lo[0] packetDropNoCarrier:sum(packetBytes) 0
scalar MultiCell_X2Mesh.router1.ppp[0].queue queueLength:last 0
scalar MultiCell_X2Mesh.router1.ppp[0].queue queueLength:max 0
scalar MultiCell_X2Mesh.router1.ppp[0].queue queueLength:timeavg 0
scalar MultiCell_X2Mesh.router1.ppp[0].queue queueBitLength:last 0
scalar MultiCell_X2Mesh.router1.ppp[0].queue queueBitLength:max 0
scalar MultiCell_X2Mesh.router1.ppp[0].queue queueBitLength:timeavg 0
scalar MultiCell_X2Mesh.router1.ppp[0].queue outgoingPackets:count 0
scalar MultiCell_X2Mesh.router1.ppp[0].queue outgoingPacketLengths:sum 0
scalar MultiCell_X2Mesh.router1.ppp[0].queue incomingPackets:count 0
scalar MultiCell_X2Mesh.router1.ppp[0].queue incomingPacketLengths:sum 0
scalar MultiCell_X2Mesh.router1.ppp[0].queue droppedPacketsQueueOverflow:count 0
scalar MultiCell_X2Mesh.router1.ppp[0].queue droppedPacketLengthsQueueOverflow:sum 0
scalar MultiCell_X2Mesh.router1.ppp[0].ppp transmissionState:timeavg 0
scalar MultiCell_X2Mesh.router1.ppp[0].ppp rxPkOk:count 0
scalar MultiCell_X2Mesh.router1.ppp[0].ppp rxPkOk:sum(packetBytes) 0
scalar MultiCell_X2Mesh.router1.ppp[0].ppp txPk:count 0
scalar MultiCell_X2Mesh.router1.ppp[0].ppp txPk:sum(packetBytes) 0
scalar MultiCell_X2Mesh.router1.ppp[0].ppp rcvdPkFromHl:count 0
scalar MultiCell_X2Mesh.router1.ppp[0].ppp rcvdPkFromHl:sum(packetBytes) 0
scalar MultiCell_X2Mesh.router1.ppp[0].ppp passedUpPk:count 0
scalar MultiCell_X2Mesh.router1.ppp[0].ppp passedUpPk:sum(packetBytes) 0
scalar MultiCell_X2Mesh.router1.ppp[0].ppp packetDropIncorrectlyReceived:count 0
scalar MultiCell_X2Mesh.router1.ppp[0].ppp packetDropIncorrectlyReceived:sum(packetBytes) 0
scalar MultiCell_X2Mesh.router1.ppp[0].ppp packetDropInterfaceDown:count 0
scalar MultiCell_X2Mesh.router1.ppp[0].ppp packetDropInterfaceDown:sum(packetBytes) 0
scalar MultiCell_X2Mesh.router1.ppp[0] packetDropInterfaceDown:count 0
scalar MultiCell_X2Mesh.router1.ppp[0] packetDropInterfaceDown:sum(packetBytes) 0
scalar MultiCell_X2Mesh.router1.ppp[0] packetDropNoCarrier:count 0
scalar MultiCell_X2Mesh.router1.ppp[0] packetDropNoCarrier:sum(packetBytes) 0
scalar MultiCell_X2Mesh.router1.ppp[1].queue queueLength:last 0
scalar MultiCell_X2Mesh.router1.ppp[1].queue queueLength:max 0
scalar MultiCell_X2Mesh.router1.ppp[1].queue queueLength:timeavg 0
scalar MultiCell_X2Mesh.router1.ppp[1].queue queueBitLength:last 0
scalar MultiCell_X2Mesh.router1.ppp[1].queue queueBitLength:max 0
scalar MultiCell_X2Mesh.router1.ppp[1].queue queueBitLength:timeavg 0
scalar MultiCell_X2Mesh.router1.ppp[1].queue outgoingPackets:count 0
scalar MultiCell_X2Mesh.router1.ppp[1].queue outgoingPacketLengths:sum 0
scalar MultiCell_X2Mesh.router1.ppp[1].queue incomingPackets:count 0
scalar MultiCell_X2Mesh.router1.ppp[1].queue incomingPacketLengths:sum 0
scalar MultiCell_X2Mesh.router1.ppp[1].queue droppedPacketsQueueOverflow:count 0
scalar MultiCell_X2Mesh.router1.ppp[1].queue droppedPacketLengthsQueueOverflow:sum 0
scalar MultiCell_X2Mesh.router1.ppp[1].ppp transmissionState:timeavg 0
scalar MultiCell_X2Mesh.router1.ppp[1].ppp rxPkOk:count 0
scalar MultiCell_X2Mesh.router1.ppp[1].ppp rxPkOk:sum(packetBytes) 0
scalar MultiCell_X2Mesh.router1.ppp[1].ppp txPk:count 0
scalar MultiCell_X2Mesh.router1.ppp[1].ppp txPk:sum(packetBytes) 0
scalar MultiCell_X2Mesh.router1.ppp[1].ppp rcvdPkFromHl:count 0
scalar MultiCell_X2Mesh.router1.ppp[1].ppp rcvdPkFromHl:sum(packetBytes) 0
scalar MultiCell_X2Mesh.router1.ppp[1].ppp passedUpPk:count 0
scalar MultiCell_X2Mesh.router1.ppp[1].ppp passedUpPk:sum(packetBytes) 0
scalar MultiCell_X2Mesh.router1.ppp[1].ppp packetDropIncorrectlyReceived:count 0
scalar MultiCell_X2Mesh.router1.ppp[1].ppp packetDropIncorrectlyReceived:sum(packetBytes) 0
scalar MultiCell_X2Mesh.router1.ppp[1].ppp packetDropInterfaceDown:count 0
scalar MultiCell_X2Mesh.router1.ppp[1].ppp packetDropInterfaceDown:sum(packetBytes) 0
scalar MultiCell_X2Mesh.router1.ppp[1] packetDropInterfaceDown:count 0
scalar MultiCell_X2Mesh.router1.ppp[1] packetDropInterfaceDown:sum(packetBytes) 0
scalar MultiCell_X2Mesh.router1.ppp[1] packetDropNoCarrier:count 0
scalar MultiCell_X2Mesh.router1.ppp[1] packetDropNoCarrier:sum(packetBytes) 0
scalar MultiCell_X2Mesh.router1.ipv4.ip packetDropAddressResolutionFailed:count 0
scalar MultiCell_X2Mesh.router1.ipv4.ip packetDropAddressResolutionFailed:sum(packetBytes) 0
scalar MultiCell_X2Mesh.router1.ipv4.ip packetDropHopLimitReached:count 0
scalar MultiCell_X2Mesh.router1.ipv4.ip packetDropHopLimitReached:sum(packetBytes) 0
scalar MultiCell_X2Mesh.router1.ipv4.ip packetDropForwardingDisabled:count 0
scalar MultiCell_X2Mesh.router1.ipv4.ip packetDropForwardingDisabled:sum(packetBytes) 0
scalar MultiCell_X2Mesh.router1.ipv4.ip packetDropNoInterfaceFound:count 0
scalar MultiCell_X2Mesh.router1.ipv4.ip packetDropNoInterfaceFound:sum(packetBytes) 0
scalar MultiCell_X2Mesh.router1.ipv4.ip packetDropNoRouteFound:count 0
scalar MultiCell_X2Mesh.router1.ipv4.ip packetDropNoRouteFound:sum(packetBytes) 0
scalar MultiCell_X2Mesh.router1.ipv4.ip packetDropUndefined:count 0
scalar MultiCell_X2Mesh.router1.ipv4.ip packetDropUndefined:sum(packetBytes) 0
scalar MultiCell_X2Mesh.router1.ipv4.arp arpResolutionFailed:count 0
scalar MultiCell_X2Mesh.router1.ipv4.arp arpResolutionCompleted:count 0
scalar MultiCell_X2Mesh.router1.ipv4.arp arpResolutionInitiated:count 0
scalar MultiCell_X2Mesh.router1.ipv4.arp arpReplySent:count 0
scalar MultiCell_X2Mesh.router1.ipv4.arp arpReplySent:sum(packetBytes) 0
scalar MultiCell_X2Mesh.router1.ipv4.arp arpRequestSent:count 0
scalar MultiCell_X2Mesh.router1.ipv4.arp arpRequestSent:sum(packetBytes) 0
scalar MultiCell_X2Mesh.router2.lo[0].lo rcvdPkFromHl:count 0
scalar MultiCell_X2Mesh.router2.lo[0].lo rcvdPkFromHl:sum(packetBytes) 0
scalar MultiCell_X2Mesh.router2.lo[0].lo passedUpPk:count 0
scalar MultiCell_X2Mesh.router2.lo[0].lo passedUpPk:sum(packetBytes) 0
scalar MultiCell_X2Mesh.router2.lo[0] packetDropInterfaceDown:count 0
scalar MultiCell_X2Mesh.router2.lo[0] packetDropInterfaceDown:sum(packetBytes) 0
scalar MultiCell_X2Mesh.router2.lo[0] packetDropNoCarrier:count 0
scalar MultiCell_X2Mesh.router2.lo[0] packetDropNoCarrier:sum(packetBytes) 0
scalar MultiCell_X2Mesh.router2.ppp[0].queue queueLength:last 0
scalar MultiCell_X2Mesh.router2.ppp[0].queue queueLength:max 0
scalar MultiCell_X2Mesh.router2.ppp[0].queue queueLength:timeavg 0
scalar MultiCell_X2Mesh.router2.ppp[0].queue queueBitLength:last 0
scalar MultiCell_X2Mesh.router2.ppp[0].queue queueBitLength:max 0
scalar MultiCell_X2Mesh.router2.ppp[0].queue queueBitLength:timeavg 0
scalar MultiCell_X2Mesh.router2.ppp[0].queue outgoingPackets:count 0
scalar MultiCell_X2Mesh.router2.ppp[0].queue outgoingPacketLengths:sum 0
scalar MultiCell_X2Mesh.router2.ppp[0].queue incomingPackets:count 0
scalar MultiCell_X2Mesh.router2.ppp[0].queue incomingPacketLengths:sum 0
scalar MultiCell_X2Mesh.router2.ppp[0].queue droppedPacketsQueueOverflow:count 0
scalar MultiCell_X2Mesh.router2.ppp[0].queue droppedPacketLengthsQueueOverflow:sum 0
scalar MultiCell_X2Mesh.router2.ppp[0].ppp transmissionState:timeavg 0
scalar MultiCell_X2Mesh.router2.ppp[0].ppp rxPkOk:count 0
scalar MultiCell_X2Mesh.router2.ppp[0].ppp rxPkOk:sum(packetBytes) 0
scalar MultiCell_X2Mesh.router2.ppp[0].ppp txPk:count 0
scalar MultiCell_X2Mesh.router2.ppp[0].ppp txPk:sum(packetBytes) 0
scalar MultiCell_X2Mesh.router2.ppp[0].ppp rcvdPkFromHl:count 0
scalar MultiCell_X2Mesh.router2.ppp[0].ppp rcvdPkFromHl:sum(packetBytes) 0
scalar MultiCell_X2Mesh.router2.ppp[0].ppp passedUpPk:count 0
scalar MultiCell_X2Mesh.router2.ppp[0].ppp passedUpPk:sum(packetBytes) 0
scalar MultiCell_X2Mesh.router2.ppp[0].ppp packetDropIncorrectlyReceived:count 0
scalar MultiCell_X2Mesh.router2.ppp[0].ppp packetDropIncorrectlyReceived:sum(packetBytes) 0
scalar MultiCell_X2Mesh.router2.ppp[0].ppp packetDropInterfaceDown:count 0
scalar MultiCell_X2Mesh.router2.ppp[0].ppp packetDropInterfaceDown:sum(packetBytes) 0
scalar MultiCell_X2Mesh.router2.ppp[0] packetDropInterfaceDown:count 0
scalar MultiCell_X2Mesh.router2.ppp[0] packetDropInterfaceDown:sum(packetBytes) 0
scalar MultiCell_X2Mesh.router2.ppp[0] packetDropNoCarrier:count 0
scalar MultiCell_X2Mesh.router2.ppp[0] packetDropNoCarrier:sum(packetBytes) 0
scalar MultiCell_X2Mesh.router2.ppp[1].queue queueLength:last 0
scalar MultiCell_X2Mesh.router2.ppp[1].queue queueLength:max 0
scalar MultiCell_X2Mesh.router2.ppp[1].queue queueLength:timeavg 0
scalar MultiCell_X2Mesh.router2.ppp[1].queue queueBitLength:last 0
scalar MultiCell_X2Mesh.router2.ppp[1].queue queueBitLength:max 0
scalar MultiCell_X2Mesh.router2.ppp[1].queue queueBitLength:timeavg 0
scalar MultiCell_X2Mesh.router2.ppp[1].queue outgoingPackets:count 0
scalar MultiCell_X2Mesh.router2.ppp[1].queue outgoingPacketLengths:sum 0
scalar MultiCell_X2Mesh.router2.ppp[1].queue incomingPackets:count 0
scalar MultiCell_X2Mesh.router2.ppp[1].queue incomingPacketLengths:sum 0
scalar MultiCell_X2Mesh.router2.ppp[1].queue droppedPacketsQueueOverflow:count 0
scalar MultiCell_X2Mesh.router2.ppp[1].queue droppedPacketLengthsQueueOverflow:sum 0
scalar MultiCell_X2Mesh.router2.ppp[1].ppp transmissionState:timeavg 0
scalar MultiCell_X2Mesh.router2.ppp[1].ppp rxPkOk:count 0
scalar MultiCell_X2Mesh.router2.ppp[1].ppp rxPkOk:sum(packetBytes) 0
scalar MultiCell_X2Mesh.router2.ppp[1].ppp txPk:count 0
scalar MultiCell_X2Mesh.router2.ppp[1].ppp txPk:sum(packetBytes) 0
scalar MultiCell_X2Mesh.router2.ppp[1].ppp rcvdPkFromHl:count 0
scalar MultiCell_X2Mesh.router2.ppp[1].ppp rcvdPkFromHl:sum(packetBytes) 0
scalar MultiCell_X2Mesh.router2.ppp[1].ppp passedUpPk:count 0
scalar MultiCell_X2Mesh.router2.ppp[1].ppp passedUpPk:sum(packetBytes) 0
scalar MultiCell_X2Mesh.router2.ppp[1].ppp packetDropIncorrectlyReceived:count 0
scalar MultiCell_X2Mesh.router2.ppp[1].ppp packetDropIncorrectlyReceived:sum(packetBytes) 0
scalar MultiCell_X2Mesh.router2.ppp[1].ppp packetDropInterfaceDown:count 0
scalar MultiCell_X2Mesh.router2.ppp[1].ppp packetDropInterfaceDown:sum(packetBytes) 0
scalar MultiCell_X2Mesh.router2.ppp[1] packetDropInterfaceDown:count 0
scalar MultiCell_X2Mesh.router2.ppp[1] packetDropInterfaceDown:sum(packetBytes) 0
scalar MultiCell_X2Mesh.router2.ppp[1] packetDropNoCarrier:count 0
scalar MultiCell_X2Mesh.router2.ppp[1] packetDropNoCarrier:sum(packetBytes) 0
scalar MultiCell_X2Mesh.router2.ipv4.ip packetDropAddressResolutionFailed:count 0
scalar MultiCell_X2Mesh.router2.ipv4.ip packetDropAddressResolutionFailed:sum(packetBytes) 0
scalar MultiCell_X2Mesh.router2.ipv4.ip packetDropHopLimitReached:count 0
scalar MultiCell_X2Mesh.router2.ipv4.ip packetDropHopLimitReached:sum(packetBytes) 0
scalar MultiCell_X2Mesh.router2.ipv4.ip packetDropForwardingDisabled:count 0
scalar MultiCell_X2Mesh.router2.ipv4.ip packetDropForwardingDisabled:sum(packetBytes) 0
scalar MultiCell_X2Mesh.router2.ipv4.ip packetDropNoInterfaceFound:count 0
scalar MultiCell_X2Mesh.router2.ipv4.ip packetDropNoInterfaceFound:sum(packetBytes) 0
scalar MultiCell_X2Mesh.router2.ipv4.ip packetDropNoRouteFound:count 0
scalar MultiCell_X2Mesh.router2.ipv4.ip packetDropNoRouteFound:sum(packetBytes) 0
scalar MultiCell_X2Mesh.router2.ipv4.ip packetDropUndefined:count 0
scalar MultiCell_X2Mesh.router2.ipv4.ip packetDropUndefined:sum(packetBytes) 0
scalar MultiCell_X2Mesh.router2.ipv4.arp arpResolutionFailed:count 0
scalar MultiCell_X2Mesh.router2.ipv4.arp arpResolutionCompleted:count 0
scalar MultiCell_X2Mesh.router2.ipv4.arp arpResolutionInitiated:count 0
scalar MultiCell_X2Mesh.router2.ipv4.arp arpReplySent:count 0
scalar MultiCell_X2Mesh.router2.ipv4.arp arpReplySent:sum(packetBytes) 0
scalar MultiCell_X2Mesh.router2.ipv4.arp arpRequestSent:count 0
scalar MultiCell_X2Mesh.router2.ipv4.arp arpRequestSent:sum(packetBytes) 0
scalar MultiCell_X2Mesh.router3.lo[0].lo rcvdPkFromHl:count 0
scalar MultiCell_X2Mesh.router3.lo[0].lo rcvdPkFromHl:sum(packetBytes) 0
scalar MultiCell_X2Mesh.router3.lo[0].lo passedUpPk:count 0
scalar MultiCell_X2Mesh.router3.lo[0].lo passedUpPk:sum(packetBytes) 0
scalar MultiCell_X2Mesh.router3.lo[0] packetDropInterfaceDown:count 0
scalar MultiCell_X2Mesh.router3.lo[0] packetDropInterfaceDown:sum(packetBytes) 0
scalar MultiCell_X2Mesh.router3.lo[0] packetDropNoCarrier:count 0
scalar MultiCell_X2Mesh.router3.lo[0] packetDropNoCarrier:sum(packetBytes) 0
scalar MultiCell_X2Mesh.router3.ppp[0].queue queueLength:last 0
scalar MultiCell_X2Mesh.router3.ppp[0].queue queueLength:max 0
scalar MultiCell_X2Mesh.router3.ppp[0].queue queueLength:timeavg 0
scalar MultiCell_X2Mesh.router3.ppp[0].queue queueBitLength:last 0
scalar MultiCell_X2Mesh.router3.ppp[0].queue queueBitLength:max 0
scalar MultiCell_X2Mesh.router3.ppp[0].queue queueBitLength:timeavg 0
scalar MultiCell_X2Mesh.router3.ppp[0].queue outgoingPackets:count 0
scalar MultiCell_X2Mesh.router3.ppp[0].queue outgoingPacketLengths:sum 0
scalar MultiCell_X2Mesh.router3.ppp[0].queue incomingPackets:count 0
scalar MultiCell_X2Mesh.router3.ppp[0].queue incomingPacketLengths:sum 0
scalar MultiCell_X2Mesh.router3.ppp[0].queue droppedPacketsQueueOverflow:count 0
scalar MultiCell_X2Mesh.router3.ppp[0].queue droppedPacketLengthsQueueOverflow:sum 0
scalar MultiCell_X2Mesh.router3.ppp[0].ppp transmissionState:timeavg 0
scalar MultiCell_X2Mesh.router3.ppp[0].ppp rxPkOk:count 0
scalar MultiCell_X2Mesh.router3.ppp[0].ppp rxPkOk:sum(packetBytes) 0
scalar MultiCell_X2Mesh.router3.ppp[0].ppp txPk:count 0
scalar MultiCell_X2Mesh.router3.ppp[0].ppp txPk:sum(packetBytes) 0
scalar MultiCell_X2Mesh.router3.ppp[0].ppp rcvdPkFromHl:count 0
scalar MultiCell_X2Mesh.router3.ppp[0].ppp rcvdPkFromHl:sum(packetBytes) 0
scalar MultiCell_X2Mesh.router3.ppp[0].ppp passedUpPk:count 0
scalar MultiCell_X2Mesh.router3.ppp[0].ppp passedUpPk:sum(packetBytes) 0
scalar MultiCell_X2Mesh.router3.ppp[0].ppp packetDropIncorrectlyReceived:count 0
scalar MultiCell_X2Mesh.router3.ppp[0].ppp packetDropIncorrectlyReceived:sum(packetBytes) 0
scalar MultiCell_X2Mesh.router3.ppp[0].ppp packetDropInterfaceDown:count 0
scalar MultiCell_X2Mesh.router3.ppp[0].ppp packetDropInterfaceDown:sum(packetBytes) 0
scalar MultiCell_X2Mesh.router3.ppp[0] packetDropInterfaceDown:count 0
scalar MultiCell_X2Mesh.router3.ppp[0] packetDropInterfaceDown:sum(packetBytes) 0
scalar MultiCell_X2Mesh.router3.ppp[0] packetDropNoCarrier:count 0
scalar MultiCell_X2Mesh.router3.ppp[0] packetDropNoCarrier:sum(packetBytes) 0
scalar MultiCell_X2Mesh.router3.ppp[1].queue queueLength:last 0
scalar MultiCell_X2Mesh.router3.ppp[1].queue queueLength:max 0
scalar MultiCell_X2Mesh.router3.ppp[1].queue queueLength:timeavg 0
scalar MultiCell_X2Mesh.router3.ppp[1].queue queueBitLength:last 0
scalar MultiCell_X2Mesh.router3.ppp[1].queue queueBitLength:max 0
scalar MultiCell_X2Mesh.router3.ppp[1].queue queueBitLength:timeavg 0
scalar MultiCell_X2Mesh.router3.ppp[1].queue outgoingPackets:count 0
scalar MultiCell_X2Mesh.router3.ppp[1].queue outgoingPacketLengths:sum 0
scalar MultiCell_X2Mesh.router3.ppp[1].queue incomingPackets:count 0
scalar MultiCell_X2Mesh.router3.ppp[1].queue incomingPacketLengths:sum 0
scalar MultiCell_X2Mesh.router3.ppp[1].queue droppedPacketsQueueOverflow:count 0
scalar MultiCell_X2Mesh.router3.ppp[1].queue droppedPacketLengthsQueueOverflow:sum 0
scalar MultiCell_X2Mesh.router3.ppp[1].ppp transmissionState:timeavg 0
scalar MultiCell_X2Mesh.router3.ppp[1].ppp rxPkOk:count 0
scalar MultiCell_X2Mesh.router3.ppp[1].ppp rxPkOk:sum(packetBytes) 0
scalar MultiCell_X2Mesh.router3.ppp[1].ppp txPk:count 0
scalar MultiCell_X2Mesh.router3.ppp[1].ppp txPk:sum(packetBytes) 0
scalar MultiCell_X2Mesh.router3.ppp[1].ppp rcvdPkFromHl:count 0
scalar MultiCell_X2Mesh.router3.ppp[1].ppp rcvdPkFromHl:sum(packetBytes) 0
scalar MultiCell_X2Mesh.router3.ppp[1].ppp passedUpPk:count 0
scalar MultiCell_X2Mesh.router3.ppp[1].ppp passedUpPk:sum(packetBytes) 0
scalar MultiCell_X2Mesh.router3.ppp[1].ppp packetDropIncorrectlyReceived:count 0
scalar MultiCell_X2Mesh.router3.ppp[1].ppp packetDropIncorrectlyReceived:sum(packetBytes) 0
scalar MultiCell_X2Mesh.router3.ppp[1].ppp packetDropInterfaceDown:count 0
scalar MultiCell_X2Mesh.router3.ppp[1].ppp packetDropInterfaceDown:sum(packetBytes) 0
scalar MultiCell_X2Mesh.router3.ppp[1] packetDropInterfaceDown:count 0
scalar MultiCell_X2Mesh.router3.ppp[1] packetDropInterfaceDown:sum(packetBytes) 0
scalar MultiCell_X2Mesh.router3.ppp[1] packetDropNoCarrier:count 0
scalar MultiCell_X2Mesh.router3.ppp[1] packetDropNoCarrier:sum(packetBytes) 0
scalar MultiCell_X2Mesh.router3.ipv4.ip packetDropAddressResolutionFailed:count 0
scalar MultiCell_X2Mesh.router3.ipv4.ip packetDropAddressResolutionFailed:sum(packetBytes) 0
scalar MultiCell_X2Mesh.router3.ipv4.ip packetDropHopLimitReached:count 0
scalar MultiCell_X2Mesh.router3.ipv4.ip packetDropHopLimitReached:sum(packetBytes) 0
scalar MultiCell_X2Mesh.router3.ipv4.ip packetDropForwardingDisabled:count 0
scalar MultiCell_X2Mesh.router3.ipv4.ip packetDropForwardingDisabled:sum(packetBytes) 0
scalar MultiCell_X2Mesh.router3.ipv4.ip packetDropNoInterfaceFound:count 0
scalar MultiCell_X2Mesh.router3.ipv4.ip packetDropNoInterfaceFound:sum(packetBytes) 0
scalar MultiCell_X2Mesh.router3.ipv4.ip packetDropNoRouteFound:count 0
scalar MultiCell_X2Mesh.router3.ipv4.ip packetDropNoRouteFound:sum(packetBytes) 0
scalar MultiCell_X2Mesh.router3.ipv4.ip packetDropUndefined:count 0
scalar MultiCell_X2Mesh.router3.ipv4.ip packetDropUndefined:sum(packetBytes) 0
scalar MultiCell_X2Mesh.router3.ipv4.arp arpResolutionFailed:count 0
scalar MultiCell_X2Mesh.router3.ipv4.arp arpResolutionCompleted:count 0
scalar MultiCell_X2Mesh.router3.ipv4.arp arpResolutionInitiated:count 0
scalar MultiCell_X2Mesh.router3.ipv4.arp arpReplySent:count 0
scalar MultiCell_X2Mesh.router3.ipv4.arp arpReplySent:sum(packetBytes) 0
scalar MultiCell_X2Mesh.router3.ipv4.arp arpRequestSent:count 0
scalar MultiCell_X2Mesh.router3.ipv4.arp arpRequestSent:sum(packetBytes) 0
scalar MultiCell_X2Mesh.eNodeB1.cellularNic.pdcp sentPacketToLowerLayer:count 0
scalar MultiCell_X2Mesh.eNodeB1.cellularNic.pdcp sentPacketToLowerLayer:sum(packetBytes) 0
scalar MultiCell_X2Mesh.eNodeB1.cellularNic.pdcp sentPacketToUpperLayer:count 0
scalar MultiCell_X2Mesh.eNodeB1.cellularNic.pdcp sentPacketToUpperLayer:sum(packetBytes) 0
scalar MultiCell_X2Mesh.eNodeB1.cellularNic.pdcp receivedPacketFromLowerLayer:count 0
scalar MultiCell_X2Mesh.eNodeB1.cellularNic.pdcp receivedPacketFromLowerLayer:sum(packetBytes) 0
scalar MultiCell_X2Mesh.eNodeB1.cellularNic.pdcp receivedPacketFromUpperLayer:count 0
scalar MultiCell_X2Mesh.eNodeB1.cellularNic.pdcp receivedPacketFromUpperLayer:sum(packetBytes) 0
scalar MultiCell_X2Mesh.eNodeB1.cellularNic.rlc.tm rlcPacketLossUl:mean -nan
scalar MultiCell_X2Mesh.eNodeB1.cellularNic.rlc.tm rlcPacketLossUl:sum 0
scalar MultiCell_X2Mesh.eNodeB1.cellularNic.rlc.tm rlcPacketLossDl:mean -nan
scalar MultiCell_X2Mesh.eNodeB1.cellularNic.rlc.tm rlcPacketLossDl:sum 0
scalar MultiCell_X2Mesh.eNodeB1.cellularNic.rlc.tm sentPacketToLowerLayer:count 0
scalar MultiCell_X2Mesh.eNodeB1.cellularNic.rlc.tm sentPacketToLowerLayer:sum(packetBytes) 0
scalar MultiCell_X2Mesh.eNodeB1.cellularNic.rlc.tm sentPacketToUpperLayer:count 0
scalar MultiCell_X2Mesh.eNodeB1.cellularNic.rlc.tm sentPacketToUpperLayer:sum(packetBytes) 0
scalar MultiCell_X2Mesh.eNodeB1.cellularNic.rlc.tm receivedPacketFromLowerLayer:count 0
scalar MultiCell_X2Mesh.eNodeB1.cellularNic.rlc.tm receivedPacketFromLowerLayer:sum(packetBytes) 0
scalar MultiCell_X2Mesh.eNodeB1.cellularNic.rlc.tm receivedPacketFromUpperLayer:count 0
scalar MultiCell_X2Mesh.eNodeB1.cellularNic.rlc.tm receivedPacketFromUpperLayer:sum(packetBytes) 0
scalar MultiCell_X2Mesh.eNodeB1.cellularNic.rlc.um rlcCellThroughputUl:simu5g_rateavg -nan
scalar MultiCell_X2Mesh.eNodeB1.cellularNic.rlc.um rlcCellThroughputDl:simu5g_rateavg -nan
scalar MultiCell_X2Mesh.eNodeB1.cellularNic.rlc.um rlcPduThroughputUl:simu5g_rateavg -nan
scalar MultiCell_X2Mesh.eNodeB1.cellularNic.rlc.um rlcPduThroughputDl:simu5g_rateavg -nan
scalar MultiCell_X2Mesh.eNodeB1.cellularNic.rlc.um rlcPduDelayUl:mean -nan
scalar MultiCell_X2Mesh.eNodeB1.cellularNic.rlc.um rlcPduDelayDl:mean -nan
scalar MultiCell_X2Mesh.eNodeB1.cellularNic.rlc.um rlcThroughputUl:simu5g_rateavg -nan
scalar MultiCell_X2Mesh.eNodeB1.cellularNic.rlc.um rlcThroughputDl:simu5g_rateavg -nan
scalar MultiCell_X2Mesh.eNodeB1.cellularNic.rlc.um rlcDelayUl:mean -nan
scalar MultiCell_X2Mesh.eNodeB1.cellularNic.rlc.um rlcDelayDl:mean -nan
scalar MultiCell_X2Mesh.eNodeB1.cellularNic.rlc.um sentPacketToLowerLayer:count 0
scalar MultiCell_X2Mesh.eNodeB1.cellularNic.rlc.um sentPacketToLowerLayer:sum(packetBytes) 0
scalar MultiCell_X2Mesh.eNodeB1.cellularNic.rlc.um sentPacketToUpperLayer:count 0
scalar MultiCell_X2Mesh.eNodeB1.cellularNic.rlc.um sentPacketToUpperLayer:sum(packetBytes) 0
scalar MultiCell_X2Mesh.eNodeB1.cellularNic.rlc.um receivedPacketFromLowerLayer:count 0
scalar MultiCell_X2Mesh.eNodeB1.cellularNic.rlc.um receivedPacketFromLowerLayer:sum(packetBytes) 0
scalar MultiCell_X2Mesh.eNodeB1.cellularNic.rlc.um receivedPacketFromUpperLayer:count 0
scalar MultiCell_X2Mesh.eNodeB1.cellularNic.rlc.um receivedPacketFromUpperLayer:sum(packetBytes) 0
scalar MultiCell_X2Mesh.eNodeB1.cellularNic.rlc.am rlcPacketLossTotal:mean -nan
scalar MultiCell_X2Mesh.eNodeB1.cellularNic.rlc.am rlcCellThroughputUl:simu5g_rateavg -nan
scalar MultiCell_X2Mesh.eNodeB1.cellularNic.rlc.am rlcCellThroughputDl:simu5g_rateavg -nan
scalar MultiCell_X2Mesh.eNodeB1.cellularNic.rlc.am rlcPduThroughputUl:simu5g_rateavg -nan
scalar MultiCell_X2Mesh.eNodeB1.cellularNic.rlc.am rlcPduThroughputDl:simu5g_rateavg -nan
scalar MultiCell_X2Mesh.eNodeB1.cellularNic.rlc.am rlcPduDelayUl:mean -nan
scalar MultiCell_X2Mesh.eNodeB1.cellularNic.rlc.am rlcPduDelayDl:mean -nan
scalar MultiCell_X2Mesh.eNodeB1.cellularNic.rlc.am rlcThroughputUl:simu5g_rateavg -nan
scalar MultiCell_X2Mesh.eNodeB1.cellularNic.rlc.am rlcThroughputDl:simu5g_rateavg -nan
scalar MultiCell_X2Mesh.eNodeB1.cellularNic.rlc.am rlcDelayUl:mean -nan
scalar MultiCell_X2Mesh.eNodeB1.cellularNic.rlc.am rlcDelayDl:mean -nan
scalar MultiCell_X2Mesh.eNodeB1.cellularNic.rlc.am rlcPduPacketLossUl:mean -nan
scalar MultiCell_X2Mesh.eNodeB1.cellularNic.rlc.am rlcPduPacketLossDl:mean -nan
scalar MultiCell_X2Mesh.eNodeB1.cellularNic.rlc.am rlcPacketLossUl:mean -nan
scalar MultiCell_X2Mesh.eNodeB1.cellularNic.rlc.am rlcPacketLossDl:mean -nan
scalar MultiCell_X2Mesh.eNodeB1.cellularNic.rlc.am rlcCellPacketLossUl:mean -nan
scalar MultiCell_X2Mesh.eNodeB1.cellularNic.rlc.am rlcCellPacketLossDl:mean -nan
scalar MultiCell_X2Mesh.eNodeB1.cellularNic.mac avgServedBlocksUl:mean 0
scalar MultiCell_X2Mesh.eNodeB1.cellularNic.mac avgServedBlocksDl:mean 0
scalar MultiCell_X2Mesh.eNodeB1.cellularNic.mac harqTxAttemptsUl:mean -nan
scalar MultiCell_X2Mesh.eNodeB1.cellularNic.mac harqTxAttemptsDl:mean -nan
scalar MultiCell_X2Mesh.eNodeB1.cellularNic.mac harqErrorRate_4th_Ul:mean -nan
scalar MultiCell_X2Mesh.eNodeB1.cellularNic.mac harqErrorRate_4th_Dl:mean -nan
scalar MultiCell_X2Mesh.eNodeB1.cellularNic.mac harqErrorRate_3rd_Ul:mean -nan
scalar MultiCell_X2Mesh.eNodeB1.cellularNic.mac harqErrorRate_3rd_Dl:mean -nan
scalar MultiCell_X2Mesh.eNodeB1.cellularNic.mac harqErrorRate_2nd_Ul:mean -nan
scalar MultiCell_X2Mesh.eNodeB1.cellularNic.mac harqErrorRate_2nd_Dl:mean -nan
scalar MultiCell_X2Mesh.eNodeB1.cellularNic.mac harqErrorRate_1st_Ul:mean -nan
scalar MultiCell_X2Mesh.eNodeB1.cellularNic.mac harqErrorRate_1st_Dl:mean -nan
scalar MultiCell_X2Mesh.eNodeB1.cellularNic.mac harqErrorRateUl:mean -nan
scalar MultiCell_X2Mesh.eNodeB1.cellularNic.mac harqErrorRateDl:mean -nan
scalar MultiCell_X2Mesh.eNodeB1.cellularNic.mac macCellPacketLossUl:mean -nan
scalar MultiCell_X2Mesh.eNodeB1.cellularNic.mac macCellPacketLossDl:mean -nan
scalar MultiCell_X2Mesh.eNodeB1.cellularNic.mac macPacketLossUl:mean -nan
scalar MultiCell_X2Mesh.eNodeB1.cellularNic.mac macPacketLossDl:mean -nan
scalar MultiCell_X2Mesh.eNodeB1.cellularNic.mac macThroughputUl:simu5g_rateavg -nan
scalar MultiCell_X2Mesh.eNodeB1.cellularNic.mac macThroughputDl:simu5g_rateavg -nan
scalar MultiCell_X2Mesh.eNodeB1.cellularNic.mac macDelayUl:mean -nan
scalar MultiCell_X2Mesh.eNodeB1.cellularNic.mac macDelayDl:mean -nan
scalar MultiCell_X2Mesh.eNodeB1.cellularNic.mac macCellThroughputUl:simu5g_rateavg -nan
scalar MultiCell_X2Mesh.eNodeB1.cellularNic.mac macCellThroughputDl:simu5g_rateavg -nan
scalar MultiCell_X2Mesh.eNodeB1.cellularNic.mac sentPacketToLowerLayer:count 0
scalar MultiCell_X2Mesh.eNodeB1.cellularNic.mac sentPacketToLowerLayer:sum(packetBytes) 0
scalar MultiCell_X2Mesh.eNodeB1.cellularNic.mac sentPacketToUpperLayer:count 0
scalar MultiCell_X2Mesh.eNodeB1.cellularNic.mac sentPacketToUpperLayer:sum(packetBytes) 0
scalar MultiCell_X2Mesh.eNodeB1.cellularNic.mac receivedPacketFromLowerLayer:count 0
scalar MultiCell_X2Mesh.eNodeB1.cellularNic.mac receivedPacketFromLowerLayer:sum(packetBytes) 0
scalar MultiCell_X2Mesh.eNodeB1.cellularNic.mac receivedPacketFromUpperLayer:count 0
scalar MultiCell_X2Mesh.eNodeB1.cellularNic.mac receivedPacketFromUpperLayer:sum(packetBytes) 0
scalar MultiCell_X2Mesh.eNodeB1.cellularNic.mac macBufferOverFlowD2D:mean -nan
scalar MultiCell_X2Mesh.eNodeB1.cellularNic.mac macBufferOverFlowUl:mean -nan
scalar MultiCell_X2Mesh.eNodeB1.cellularNic.mac macBufferOverFlowDl:mean -nan
scalar MultiCell_X2Mesh.eNodeB1.cellularNic.channelModel[0] measuredSinrUl:mean -nan
scalar MultiCell_X2Mesh.eNodeB1.cellularNic.channelModel[0] measuredSinrDl:mean -nan
scalar MultiCell_X2Mesh.eNodeB1.cellularNic.channelModel[0] rcvdSinrD2D:mean -nan
scalar MultiCell_X2Mesh.eNodeB1.cellularNic.channelModel[0] rcvdSinrUl:mean -nan
scalar MultiCell_X2Mesh.eNodeB1.cellularNic.channelModel[0] rcvdSinrDl:mean -nan
scalar MultiCell_X2Mesh.eNodeB1.cellularNic packetDropInterfaceDown:count 0
scalar MultiCell_X2Mesh.eNodeB1.cellularNic packetDropInterfaceDown:sum(packetBytes) 0
scalar MultiCell_X2Mesh.eNodeB1.cellularNic packetDropNoCarrier:count 0
scalar MultiCell_X2Mesh.eNodeB1.cellularNic packetDropNoCarrier:sum(packetBytes) 0
scalar MultiCell_X2Mesh.eNodeB1.pppIf.queue queueLength:last 0
scalar MultiCell_X2Mesh.eNodeB1.pppIf.queue queueLength:max 0
scalar MultiCell_X2Mesh.eNodeB1.pppIf.queue queueLength:timeavg 0
scalar MultiCell_X2Mesh.eNodeB1.pppIf.queue queueBitLength:last 0
scalar MultiCell_X2Mesh.eNodeB1.pppIf.queue queueBitLength:max 0
scalar MultiCell_X2Mesh.eNodeB1.pppIf.queue queueBitLength:timeavg 0
scalar MultiCell_X2Mesh.eNodeB1.pppIf.queue outgoingPackets:count 0
scalar MultiCell_X2Mesh.eNodeB1.pppIf.queue outgoingPacketLengths:sum 0
scalar MultiCell_X2Mesh.eNodeB1.pppIf.queue incomingPackets:count 0
scalar MultiCell_X2Mesh.eNodeB1.pppIf.queue incomingPacketLengths:sum 0
scalar MultiCell_X2Mesh.eNodeB1.pppIf.queue droppedPacketsQueueOverflow:count 0
scalar MultiCell_X2Mesh.eNodeB1.pppIf.queue droppedPacketLengthsQueueOverflow:sum 0
scalar MultiCell_X2Mesh.eNodeB1.pppIf.ppp transmissionState:timeavg 0
scalar MultiCell_X2Mesh.eNodeB1.pppIf.ppp rxPkOk:count 0
scalar MultiCell_X2Mesh.eNodeB1.pppIf.ppp rxPkOk:sum(packetBytes) 0
scalar MultiCell_X2Mesh.eNodeB1.pppIf.ppp txPk:count 0
scalar MultiCell_X2Mesh.eNodeB1.pppIf.ppp txPk:sum(packetBytes) 0
scalar MultiCell_X2Mesh.eNodeB1.pppIf.ppp rcvdPkFromHl:count 0
scalar MultiCell_X2Mesh.eNodeB1.pppIf.ppp rcvdPkFromHl:sum(packetBytes) 0
scalar MultiCell_X2Mesh.eNodeB1.pppIf.ppp passedUpPk:count 0
scalar MultiCell_X2Mesh.eNodeB1.pppIf.ppp passedUpPk:sum(packetBytes) 0
scalar MultiCell_X2Mesh.eNodeB1.pppIf.ppp packetDropIncorrectlyReceived:count 0
scalar MultiCell_X2Mesh.eNodeB1.pppIf.ppp packetDropIncorrectlyReceived:sum(packetBytes) 0
scalar MultiCell_X2Mesh.eNodeB1.pppIf.ppp packetDropInterfaceDown:count 0
scalar MultiCell_X2Mesh.eNodeB1.pppIf.ppp packetDropInterfaceDown:sum(packetBytes) 0
scalar MultiCell_X2Mesh.eNodeB1.pppIf packetDropInterfaceDown:count 0
scalar MultiCell_X2Mesh.eNodeB1.pppIf packetDropInterfaceDown:sum(packetBytes) 0
scalar MultiCell_X2Mesh.eNodeB1.pppIf packetDropNoCarrier:count 0
scalar MultiCell_X2Mesh.eNodeB1.pppIf packetDropNoCarrier:sum(packetBytes) 0
scalar MultiCell_X2Mesh.eNodeB1.x2ppp[0].queue queueLength:last 0
scalar MultiCell_X2Mesh.eNodeB1.x2ppp[0].queue queueLength:max 0
scalar MultiCell_X2Mesh.eNodeB1.x2ppp[0].queue queueLength:timeavg 0
scalar MultiCell_X2Mesh.eNodeB1.x2ppp[0].queue queueBitLength:last 0
scalar MultiCell_X2Mesh.eNodeB1.x2ppp[0].queue queueBitLength:max 0
scalar MultiCell_X2Mesh.eNodeB1.x2ppp[0].queue queueBitLength:timeavg 0
scalar MultiCell_X2Mesh.eNodeB1.x2ppp[0].queue outgoingPackets:count 4
scalar MultiCell_X2Mesh.eNodeB1.x2ppp[0].queue outgoingPacketLengths:sum 3456
scalar MultiCell_X2Mesh.eNodeB1.x2ppp[0].queue incomingPackets:count 4
scalar MultiCell_X2Mesh.eNodeB1.x2ppp[0].queue incomingPacketLengths:sum 3456
scalar MultiCell_X2Mesh.eNodeB1.x2ppp[0].queue droppedPacketsQueueOverflow:count 0
scalar MultiCell_X2Mesh.eNodeB1.x2ppp[0].queue droppedPacketLengthsQueueOverflow:sum 0
scalar MultiCell_X2Mesh.eNodeB1.x2ppp[0].ppp transmissionState:timeavg 1.8399999999999999e-08
scalar MultiCell_X2Mesh.eNodeB1.x2ppp[0].ppp rxPkOk:count 4
scalar MultiCell_X2Mesh.eNodeB1.x2ppp[0].ppp rxPkOk:sum(packetBytes) 460
scalar MultiCell_X2Mesh.eNodeB1.x2ppp[0].ppp txPk:count 4
scalar MultiCell_X2Mesh.eNodeB1.x2ppp[0].ppp txPk:sum(packetBytes) 460
scalar MultiCell_X2Mesh.eNodeB1.x2ppp[0].ppp rcvdPkFromHl:count 4
scalar MultiCell_X2Mesh.eNodeB1.x2ppp[0].ppp rcvdPkFromHl:sum(packetBytes) 432
scalar MultiCell_X2Mesh.eNodeB1.x2ppp[0].ppp passedUpPk:count 4
scalar MultiCell_X2Mesh.eNodeB1.x2ppp[0].ppp passedUpPk:sum(packetBytes) 432
scalar MultiCell_X2Mesh.eNodeB1.x2ppp[0].ppp packetDropIncorrectlyReceived:count 0
scalar MultiCell_X2Mesh.eNodeB1.x2ppp[0].ppp packetDropIncorrectlyReceived:sum(packetBytes) 0
scalar MultiCell_X2Mesh.eNodeB1.x2ppp[0].ppp packetDropInterfaceDown:count 0
scalar MultiCell_X2Mesh.eNodeB1.x2ppp[0].ppp packetDropInterfaceDown:sum(packetBytes) 0
scalar MultiCell_X2Mesh.eNodeB1.x2ppp[0] packetDropInterfaceDown:count 0
scalar MultiCell_X2Mesh.eNodeB1.x2ppp[0] packetDropInterfaceDown:sum(packetBytes) 0
scalar MultiCell_X2Mesh.eNodeB1.x2ppp[0] packetDropNoCarrier:count 0
scalar MultiCell_X2Mesh.eNodeB1.x2ppp[0] packetDropNoCarrier:sum(packetBytes) 0
scalar MultiCell_X2Mesh.eNodeB1.x2ppp[1].queue queueLength:last 0
scalar MultiCell_X2Mesh.eNodeB1.x2ppp[1].queue queueLength:max 0
scalar MultiCell_X2Mesh.eNodeB1.x2ppp[1].queue queueLength:timeavg 0
scalar MultiCell_X2Mesh.eNodeB1.x2ppp[1].queue queueBitLength:last 0
scalar MultiCell_X2Mesh.eNodeB1.x2ppp[1].queue queueBitLength:max 0
scalar MultiCell_X2Mesh.eNodeB1.x2ppp[1].queue queueBitLength:timeavg 0
scalar MultiCell_X2Mesh.eNodeB1.x2ppp[1].queue outgoingPackets:count 4
scalar MultiCell_X2Mesh.eNodeB1.x2ppp[1].queue outgoingPacketLengths:sum 3456
scalar MultiCell_X2Mesh.eNodeB1.x2ppp[1].queue incomingPackets:count 4
scalar MultiCell_X2Mesh.eNodeB1.x2ppp[1].queue incomingPacketLengths:sum 3456
scalar MultiCell_X2Mesh.eNodeB1.x2ppp[1].queue droppedPacketsQueueOverflow:count 0
scalar MultiCell_X2Mesh.eNodeB1.x2ppp[1].queue droppedPacketLengthsQueueOverflow:sum 0
scalar MultiCell_X2Mesh.eNodeB1.x2ppp[1].ppp transmissionState:timeavg 1.8399999999999999e-08
scalar MultiCell_X2Mesh.eNodeB1.x2ppp[1].ppp rxPkOk:count 4
scalar MultiCell_X2Mesh.eNodeB1.x2ppp[1].ppp rxPkOk:sum(packetBytes) 460
scalar MultiCell_X2Mesh.eNodeB1.x2ppp[1].ppp txPk:count 4
scalar MultiCell_X2Mesh.eNodeB1.x2ppp[1].ppp txPk:sum(packetBytes) 460
scalar MultiCell_X2Mesh.eNodeB1.x2ppp[1].ppp rcvdPkFromHl:count 4
scalar MultiCell_X2Mesh.eNodeB1.x2ppp[1].ppp rcvdPkFromHl:sum(packetBytes) 432
scalar MultiCell_X2Mesh.eNodeB1.x2ppp[1].ppp passedUpPk:count 4
scalar MultiCell_X2Mesh.eNodeB1.x2ppp[1].ppp passedUpPk:sum(packetBytes) 432
scalar MultiCell_X2Mesh.eNodeB1.x2ppp[1].ppp packetDropIncorrectlyReceived:count 0
scalar MultiCell_X2Mesh.eNodeB1.x2ppp[1].ppp packetDropIncorrectlyReceived:sum(packetBytes) 0
scalar MultiCell_X2Mesh.eNodeB1.x2ppp[1].ppp packetDropInterfaceDown:count 0
scalar MultiCell_X2Mesh.eNodeB1.x2ppp[1].ppp packetDropInterfaceDown:sum(packetBytes) 0
scalar MultiCell_X2Mesh.eNodeB1.x2ppp[1] packetDropInterfaceDown:count 0
scalar MultiCell_X2Mesh.eNodeB1.x2ppp[1] packetDropInterfaceDown:sum(packetBytes) 0
scalar MultiCell_X2Mesh.eNodeB1.x2ppp[1] packetDropNoCarrier:count 0
scalar MultiCell_X2Mesh.eNodeB1.x2ppp[1] packetDropNoCarrier:sum(packetBytes) 0
scalar MultiCell_X2Mesh.eNodeB1.pppMEHostIf.queue queueLength:last 0
scalar MultiCell_X2Mesh.eNodeB1.pppMEHostIf.queue queueLength:max 0
scalar MultiCell_X2Mesh.eNodeB1.pppMEHostIf.queue queueLength:timeavg 0
scalar MultiCell_X2Mesh.eNodeB1.pppMEHostIf.queue queueBitLength:last 0
scalar MultiCell_X2Mesh.eNodeB1.pppMEHostIf.queue queueBitLength:max 0
scalar MultiCell_X2Mesh.eNodeB1.pppMEHostIf.queue queueBitLength:timeavg 0
scalar MultiCell_X2Mesh.eNodeB1.pppMEHostIf.queue outgoingPackets:count 0
scalar MultiCell_X2Mesh.eNodeB1.pppMEHostIf.queue outgoingPacketLengths:sum 0
scalar MultiCell_X2Mesh.eNodeB1.pppMEHostIf.queue incomingPackets:count 0
scalar MultiCell_X2Mesh.eNodeB1.pppMEHostIf.queue incomingPacketLengths:sum 0
scalar MultiCell_X2Mesh.eNodeB1.pppMEHostIf.queue droppedPacketsQueueOverflow:count 0
scalar MultiCell_X2Mesh.eNodeB1.pppMEHostIf.queue droppedPacketLengthsQueueOverflow:sum 0
scalar MultiCell_X2Mesh.eNodeB1.pppMEHostIf.ppp transmissionState:timeavg 0
scalar MultiCell_X2Mesh.eNodeB1.pppMEHostIf.ppp rxPkOk:count 0
scalar MultiCell_X2Mesh.eNodeB1.pppMEHostIf.ppp rxPkOk:sum(packetBytes) 0
scalar MultiCell_X2Mesh.eNodeB1.pppMEHostIf.ppp txPk:count 0
scalar MultiCell_X2Mesh.eNodeB1.pppMEHostIf.ppp txPk:sum(packetBytes) 0
scalar MultiCell_X2Mesh.eNodeB1.pppMEHostIf.ppp rcvdPkFromHl:count 0
scalar MultiCell_X2Mesh.eNodeB1.pppMEHostIf.ppp rcvdPkFromHl:sum(packetBytes) 0
scalar MultiCell_X2Mesh.eNodeB1.pppMEHostIf.ppp passedUpPk:count 0
scalar MultiCell_X2Mesh.eNodeB1.pppMEHostIf.ppp passedUpPk:sum(packetBytes) 0
scalar MultiCell_X2Mesh.eNodeB1.pppMEHostIf.ppp packetDropIncorrectlyReceived:count 0
scalar MultiCell_X2Mesh.eNodeB1.pppMEHostIf.ppp packetDropIncorrectlyReceived:sum(packetBytes) 0
scalar MultiCell_X2Mesh.eNodeB1.pppMEHostIf.ppp packetDropInterfaceDown:count 0
scalar MultiCell_X2Mesh.eNodeB1.pppMEHostIf.ppp packetDropInterfaceDown:sum(packetBytes) 0
scalar MultiCell_X2Mesh.eNodeB1.pppMEHostIf packetDropInterfaceDown:count 0
scalar MultiCell_X2Mesh.eNodeB1.pppMEHostIf packetDropInterfaceDown:sum(packetBytes) 0
scalar MultiCell_X2Mesh.eNodeB1.pppMEHostIf packetDropNoCarrier:count 0
scalar MultiCell_X2Mesh.eNodeB1.pppMEHostIf packetDropNoCarrier:sum(packetBytes) 0
scalar MultiCell_X2Mesh.eNodeB1.ipv4.ip packetDropAddressResolutionFailed:count 0
scalar MultiCell_X2Mesh.eNodeB1.ipv4.ip packetDropAddressResolutionFailed:sum(packetBytes) 0
scalar MultiCell_X2Mesh.eNodeB1.ipv4.ip packetDropHopLimitReached:count 0
scalar MultiCell_X2Mesh.eNodeB1.ipv4.ip packetDropHopLimitReached:sum(packetBytes) 0
scalar MultiCell_X2Mesh.eNodeB1.ipv4.ip packetDropForwardingDisabled:count 0
scalar MultiCell_X2Mesh.eNodeB1.ipv4.ip packetDropForwardingDisabled:sum(packetBytes) 0
scalar MultiCell_X2Mesh.eNodeB1.ipv4.ip packetDropNoInterfaceFound:count 0
scalar MultiCell_X2Mesh.eNodeB1.ipv4.ip packetDropNoInterfaceFound:sum(packetBytes) 0
scalar MultiCell_X2Mesh.eNodeB1.ipv4.ip packetDropNoRouteFound:count 0
scalar MultiCell_X2Mesh.eNodeB1.ipv4.ip packetDropNoRouteFound:sum(packetBytes) 0
scalar MultiCell_X2Mesh.eNodeB1.ipv4.ip packetDropUndefined:count 0
scalar MultiCell_X2Mesh.eNodeB1.ipv4.ip packetDropUndefined:sum(packetBytes) 0
scalar MultiCell_X2Mesh.eNodeB1.ipv4.arp arpResolutionFailed:count 0
scalar MultiCell_X2Mesh.eNodeB1.ipv4.arp arpResolutionCompleted:count 0
scalar MultiCell_X2Mesh.eNodeB1.ipv4.arp arpResolutionInitiated:count 0
scalar MultiCell_X2Mesh.eNodeB1.ipv4.arp arpReplySent:count 0
scalar MultiCell_X2Mesh.eNodeB1.ipv4.arp arpReplySent:sum(packetBytes) 0
scalar MultiCell_X2Mesh.eNodeB1.ipv4.arp arpRequestSent:count 0
scalar MultiCell_X2Mesh.eNodeB1.ipv4.arp arpRequestSent:sum(packetBytes) 0
scalar MultiCell_X2Mesh.eNodeB1.udp packetReceived:count 0
scalar MultiCell_X2Mesh.eNodeB1.udp packetReceived:sum(packetBytes) 0
scalar MultiCell_X2Mesh.eNodeB1.udp packetSent:count 0
scalar MultiCell_X2Mesh.eNodeB1.udp packetSent:sum(packetBytes) 0
scalar MultiCell_X2Mesh.eNodeB1.udp passedUpPk:count 0
scalar MultiCell_X2Mesh.eNodeB1.udp droppedPkWrongPort:count 0
scalar MultiCell_X2Mesh.eNodeB1.udp droppedPkBadChecksum:count 0
scalar MultiCell_X2Mesh.eNodeB1.x2App[0].client packetReceived:count 0
scalar MultiCell_X2Mesh.eNodeB1.x2App[0].client packetReceived:sum(packetBytes) 0
scalar MultiCell_X2Mesh.eNodeB1.x2App[0].client packetSent:count 0
scalar MultiCell_X2Mesh.eNodeB1.x2App[0].client packetSent:sum(packetBytes) 0
scalar MultiCell_X2Mesh.eNodeB1.x2App[0].client echoedPk:count 0
scalar MultiCell_X2Mesh.eNodeB1.x2App[0].client echoedPk:sum(packetBytes) 0
scalar MultiCell_X2Mesh.eNodeB1.x2App[0].server "bytes rcvd" 0
scalar MultiCell_X2Mesh.eNodeB1.x2App[0].server throughput -nan
scalar MultiCell_X2Mesh.eNodeB1.x2App[1].client packetReceived:count 0
scalar MultiCell_X2Mesh.eNodeB1.x2App[1].client packetReceived:sum(packetBytes) 0
scalar MultiCell_X2Mesh.eNodeB1.x2App[1].client packetSent:count 0
scalar MultiCell_X2Mesh.eNodeB1.x2App[1].client packetSent:sum(packetBytes) 0
scalar MultiCell_X2Mesh.eNodeB1.x2App[1].client echoedPk:count 0
scalar MultiCell_X2Mesh.eNodeB1.x2App[1].client echoedPk:sum(packetBytes) 0
scalar MultiCell_X2Mesh.eNodeB1.x2App[1].server "bytes rcvd" 0
scalar MultiCell_X2Mesh.eNodeB1.x2App[1].server throughput -nan
scalar MultiCell_X2Mesh.eNodeB2.cellularNic.pdcp sentPacketToLowerLayer:count 0
scalar MultiCell_X2Mesh.eNodeB2.cellularNic.pdcp sentPacketToLowerLayer:sum(packetBytes) 0
scalar MultiCell_X2Mesh.eNodeB2.cellularNic.pdcp sentPacketToUpperLayer:count 0
scalar MultiCell_X2Mesh.eNodeB2.cellularNic.pdcp sentPacketToUpperLayer:sum(packetBytes) 0
scalar MultiCell_X2Mesh.eNodeB2.cellularNic.pdcp receivedPacketFromLowerLayer:count 0
scalar MultiCell_X2Mesh.eNodeB2.cellularNic.pdcp receivedPacketFromLowerLayer:sum(packetBytes) 0
scalar MultiCell_X2Mesh.eNodeB2.cellularNic.pdcp receivedPacketFromUpperLayer:count 0
scalar MultiCell_X2Mesh.eNodeB2.cellularNic.pdcp receivedPacketFromUpperLayer:sum(packetBytes) 0
scalar MultiCell_X2Mesh.eNodeB2.cellularNic.rlc.tm rlcPacketLossUl:mean -nan
scalar MultiCell_X2Mesh.eNodeB2.cellularNic.rlc.tm rlcPacketLossUl:sum 0
scalar MultiCell_X2Mesh.eNodeB2.cellularNic.rlc.tm rlcPacketLossDl:mean -nan
scalar MultiCell_X2Mesh.eNodeB2.cellularNic.rlc.tm rlcPacketLossDl:sum 0
scalar MultiCell_X2Mesh.eNodeB2.cellularNic.rlc.tm sentPacketToLowerLayer:count 0
scalar MultiCell_X2Mesh.eNodeB2.cellularNic.rlc.tm sentPacketToLowerLayer:sum(packetBytes) 0
scalar MultiCell_X2Mesh.eNodeB2.cellularNic.rlc.tm sentPacketToUpperLayer:count 0
scalar MultiCell_X2Mesh.eNodeB2.cellularNic.rlc.tm sentPacketToUpperLayer:sum(packetBytes) 0
scalar MultiCell_X2Mesh.eNodeB2.cellularNic.rlc.tm receivedPacketFromLowerLayer:count 0
scalar MultiCell_X2Mesh.eNodeB2.cellularNic.rlc.tm receivedPacketFromLowerLayer:sum(packetBytes) 0
scalar MultiCell_X2Mesh.eNodeB2.cellularNic.rlc.tm receivedPacketFromUpperLayer:count 0
scalar MultiCell_X2Mesh.eNodeB2.cellularNic.rlc.tm receivedPacketFromUpperLayer:sum(packetBytes) 0
scalar MultiCell_X2Mesh.eNodeB2.cellularNic.rlc.um rlcCellThroughputUl:simu5g_rateavg -nan
scalar MultiCell_X2Mesh.eNodeB2.cellularNic.rlc.um rlcCellThroughputDl:simu5g_rateavg -nan
scalar MultiCell_X2Mesh.eNodeB2.cellularNic.rlc.um rlcPduThroughputUl:simu5g_rateavg -nan
scalar MultiCell_X2Mesh.eNodeB2.cellularNic.rlc.um rlcPduThroughputDl:simu5g_rateavg -nan
scalar MultiCell_X2Mesh.eNodeB2.cellularNic.rlc.um rlcPduDelayUl:mean -nan
scalar MultiCell_X2Mesh.eNodeB2.cellularNic.rlc.um rlcPduDelayDl:mean -nan
scalar MultiCell_X2Mesh.eNodeB2.cellularNic.rlc.um rlcThroughputUl:simu5g_rateavg -nan
scalar MultiCell_X2Mesh.eNodeB2.cellularNic.rlc.um rlcThroughputDl:simu5g_rateavg -nan
scalar MultiCell_X2Mesh.eNodeB2.cellularNic.rlc.um rlcDelayUl:mean -nan
scalar MultiCell_X2Mesh.eNodeB2.cellularNic.rlc.um rlcDelayDl:mean -nan
scalar MultiCell_X2Mesh.eNodeB2.cellularNic.rlc.um sentPacketToLowerLayer:count 0
scalar MultiCell_X2Mesh.eNodeB2.cellularNic.rlc.um sentPacketToLowerLayer:sum(packetBytes) 0
scalar MultiCell_X2Mesh.eNodeB2.cellularNic.rlc.um sentPacketToUpperLayer:count 0
scalar MultiCell_X2Mesh.eNodeB2.cellularNic.rlc.um sentPacketToUpperLayer:sum(packetBytes) 0
scalar MultiCell_X2Mesh.eNodeB2.cellularNic.rlc.um receivedPacketFromLowerLayer:count 0
scalar MultiCell_X2Mesh.eNodeB2.cellularNic.rlc.um receivedPacketFromLowerLayer:sum(packetBytes) 0
scalar MultiCell_X2Mesh.eNodeB2.cellularNic.rlc.um receivedPacketFromUpperLayer:count 0
scalar MultiCell_X2Mesh.eNodeB2.cellularNic.rlc.um receivedPacketFromUpperLayer:sum(packetBytes) 0
scalar MultiCell_X2Mesh.eNodeB2.cellularNic.rlc.am rlcPacketLossTotal:mean -nan
scalar MultiCell_X2Mesh.eNodeB2.cellularNic.rlc.am rlcCellThroughputUl:simu5g_rateavg -nan
scalar MultiCell_X2Mesh.eNodeB2.cellularNic.rlc.am rlcCellThroughputDl:simu5g_rateavg -nan
scalar MultiCell_X2Mesh.eNodeB2.cellularNic.rlc.am rlcPduThroughputUl:simu5g_rateavg -nan
scalar MultiCell_X2Mesh.eNodeB2.cellularNic.rlc.am rlcPduThroughputDl:simu5g_rateavg -nan
scalar MultiCell_X2Mesh.eNodeB2.cellularNic.rlc.am rlcPduDelayUl:mean -nan
scalar MultiCell_X2Mesh.eNodeB2.cellularNic.rlc.am rlcPduDelayDl:mean -nan
scalar MultiCell_X2Mesh.eNodeB2.cellularNic.rlc.am rlcThroughputUl:simu5g_rateavg -nan
scalar MultiCell_X2Mesh.eNodeB2.cellularNic.rlc.am rlcThroughputDl:simu5g_rateavg -nan
scalar MultiCell_X2Mesh.eNodeB2.cellularNic.rlc.am rlcDelayUl:mean -nan
scalar MultiCell_X2Mesh.eNodeB2.cellularNic.rlc.am rlcDelayDl:mean -nan
scalar MultiCell_X2Mesh.eNodeB2.cellularNic.rlc.am rlcPduPacketLossUl:mean -nan
scalar MultiCell_X2Mesh.eNodeB2.cellularNic.rlc.am rlcPduPacketLossDl:mean -nan
scalar MultiCell_X2Mesh.eNodeB2.cellularNic.rlc.am rlcPacketLossUl:mean -nan
scalar MultiCell_X2Mesh.eNodeB2.cellularNic.rlc.am rlcPacketLossDl:mean -nan
scalar MultiCell_X2Mesh.eNodeB2.cellularNic.rlc.am rlcCellPacketLossUl:mean -nan
scalar MultiCell_X2Mesh.eNodeB2.cellularNic.rlc.am rlcCellPacketLossDl:mean -nan
scalar MultiCell_X2Mesh.eNodeB2.cellularNic.mac avgServedBlocksUl:mean 0
scalar MultiCell_X2Mesh.eNodeB2.cellularNic.mac avgServedBlocksDl:mean 0
scalar MultiCell_X2Mesh.eNodeB2.cellularNic.mac harqTxAttemptsUl:mean -nan
scalar MultiCell_X2Mesh.eNodeB2.cellularNic.mac harqTxAttemptsDl:mean -nan
scalar MultiCell_X2Mesh.eNodeB2.cellularNic.mac harqErrorRate_4th_Ul:mean -nan
scalar MultiCell_X2Mesh.eNodeB2.cellularNic.mac harqErrorRate_4th_Dl:mean -nan
scalar MultiCell_X2Mesh.eNodeB2.cellularNic.mac harqErrorRate_3rd_Ul:mean -nan
scalar MultiCell_X2Mesh.eNodeB2.cellularNic.mac harqErrorRate_3rd_Dl:mean -nan
scalar MultiCell_X2Mesh.eNodeB2.cellularNic.mac harqErrorRate_2nd_Ul:mean -nan
scalar MultiCell_X2Mesh.eNodeB2.cellularNic.mac harqErrorRate_2nd_Dl:mean -nan
scalar MultiCell_X2Mesh.eNodeB2.cellularNic.mac harqErrorRate_1st_Ul:mean -nan
scalar MultiCell_X2Mesh.eNodeB2.cellularNic.mac harqErrorRate_1st_Dl:mean -nan
scalar MultiCell_X2Mesh.eNodeB2.cellularNic.mac harqErrorRateUl:mean -nan
scalar MultiCell_X2Mesh.eNodeB2.cellularNic.mac harqErrorRateDl:mean -nan
scalar MultiCell_X2Mesh.eNodeB2.cellularNic.mac macCellPacketLossUl:mean -nan
scalar MultiCell_X2Mesh.eNodeB2.cellularNic.mac macCellPacketLossDl:mean -nan
scalar MultiCell_X2Mesh.eNodeB2.cellularNic.mac macPacketLossUl:mean -nan
scalar MultiCell_X2Mesh.eNodeB2.cellularNic.mac macPacketLossDl:mean -nan
scalar MultiCell_X2Mesh.eNodeB2.cellularNic.mac macThroughputUl:simu5g_rateavg -nan
scalar MultiCell_X2Mesh.eNodeB2.cellularNic.mac macThroughputDl:simu5g_rateavg -nan
scalar MultiCell_X2Mesh.eNodeB2.cellularNic.mac macDelayUl:mean -nan
scalar MultiCell_X2Mesh.eNodeB2.cellularNic.mac macDelayDl:mean -nan
scalar MultiCell_X2Mesh.eNodeB2.cellularNic.mac macCellThroughputUl:simu5g_rateavg -nan
scalar MultiCell_X2Mesh.eNodeB2.cellularNic.mac macCellThroughputDl:simu5g_rateavg -nan
scalar MultiCell_X2Mesh.eNodeB2.cellularNic.mac sentPacketToLowerLayer:count 0
scalar MultiCell_X2Mesh.eNodeB2.cellularNic.mac sentPacketToLowerLayer:sum(packetBytes) 0
scalar MultiCell_X2Mesh.eNodeB2.cellularNic.mac sentPacketToUpperLayer:count 0
scalar MultiCell_X2Mesh.eNodeB2.cellularNic.mac sentPacketToUpperLayer:sum(packetBytes) 0
scalar MultiCell_X2Mesh.eNodeB2.cellularNic.mac receivedPacketFromLowerLayer:count 0
scalar MultiCell_X2Mesh.eNodeB2.cellularNic.mac receivedPacketFromLowerLayer:sum(packetBytes) 0
scalar MultiCell_X2Mesh.eNodeB2.cellularNic.mac receivedPacketFromUpperLayer:count 0
scalar MultiCell_X2Mesh.eNodeB2.cellularNic.mac receivedPacketFromUpperLayer:sum(packetBytes) 0
scalar MultiCell_X2Mesh.eNodeB2.cellularNic.mac macBufferOverFlowD2D:mean -nan
scalar MultiCell_X2Mesh.eNodeB2.cellularNic.mac macBufferOverFlowUl:mean -nan
scalar MultiCell_X2Mesh.eNodeB2.cellularNic.mac macBufferOverFlowDl:mean -nan
scalar MultiCell_X2Mesh.eNodeB2.cellularNic.channelModel[0] measuredSinrUl:mean -nan
scalar MultiCell_X2Mesh.eNodeB2.cellularNic.channelModel[0] measuredSinrDl:mean -nan
scalar MultiCell_X2Mesh.eNodeB2.cellularNic.channelModel[0] rcvdSinrD2D:mean -nan
scalar MultiCell_X2Mesh.eNodeB2.cellularNic.channelModel[0] rcvdSinrUl:mean -nan
scalar MultiCell_X2Mesh.eNodeB2.cellularNic.channelModel[0] rcvdSinrDl:mean -nan
scalar MultiCell_X2Mesh.eNodeB2.cellularNic packetDropInterfaceDown:count 0
scalar MultiCell_X2Mesh.eNodeB2.cellularNic packetDropInterfaceDown:sum(packetBytes) 0
scalar MultiCell_X2Mesh.eNodeB2.cellularNic packetDropNoCarrier:count 0
scalar MultiCell_X2Mesh.eNodeB2.cellularNic packetDropNoCarrier:sum(packetBytes) 0
scalar MultiCell_X2Mesh.eNodeB2.pppIf.queue queueLength:last 0
scalar MultiCell_X2Mesh.eNodeB2.pppIf.queue queueLength:max 0
scalar MultiCell_X2Mesh.eNodeB2.pppIf.queue queueLength:timeavg 0
scalar MultiCell_X2Mesh.eNodeB2.pppIf.queue queueBitLength:last 0
scalar MultiCell_X2Mesh.eNodeB2.pppIf.queue queueBitLength:max 0
scalar MultiCell_X2Mesh.eNodeB2.pppIf.queue queueBitLength:timeavg 0
scalar MultiCell_X2Mesh.eNodeB2.pppIf.queue outgoingPackets:count 0
scalar MultiCell_X2Mesh.eNodeB2.pppIf.queue outgoingPacketLengths:sum 0
scalar MultiCell_X2Mesh.eNodeB2.pppIf.queue incomingPackets:count 0
scalar MultiCell_X2Mesh.eNodeB2.pppIf.queue incomingPacketLengths:sum 0
scalar MultiCell_X2Mesh.eNodeB2.pppIf.queue droppedPacketsQueueOverflow:count 0
scalar MultiCell_X2Mesh.eNodeB2.pppIf.queue droppedPacketLengthsQueueOverflow:sum 0
scalar MultiCell_X2Mesh.eNodeB2.pppIf.ppp transmissionState:timeavg 0
scalar MultiCell_X2Mesh.eNodeB2.pppIf.ppp rxPkOk:count 0
scalar MultiCell_X2Mesh.eNodeB2.pppIf.ppp rxPkOk:sum(packetBytes) 0
scalar MultiCell_X2Mesh.eNodeB2.pppIf.ppp txPk:count 0
scalar MultiCell_X2Mesh.eNodeB2.pppIf.ppp txPk:sum(packetBytes) 0
scalar MultiCell_X2Mesh.eNodeB2.pppIf.ppp rcvdPkFromHl:count 0
scalar MultiCell_X2Mesh.eNodeB2.pppIf.ppp rcvdPkFromHl:sum(packetBytes) 0
scalar MultiCell_X2Mesh.eNodeB2.pppIf.ppp passedUpPk:count 0
scalar MultiCell_X2Mesh.eNodeB2.pppIf.ppp passedUpPk:sum(packetBytes) 0
scalar MultiCell_X2Mesh.eNodeB2.pppIf.ppp packetDropIncorrectlyReceived:count 0
scalar MultiCell_X2Mesh.eNodeB2.pppIf.ppp packetDropIncorrectlyReceived:sum(packetBytes) 0
scalar MultiCell_X2Mesh.eNodeB2.pppIf.ppp packetDropInterfaceDown:count 0
scalar MultiCell_X2Mesh.eNodeB2.pppIf.ppp packetDropInterfaceDown:sum(packetBytes) 0
scalar MultiCell_X2Mesh.eNodeB2.pppIf packetDropInterfaceDown:count 0
scalar MultiCell_X2Mesh.eNodeB2.pppIf packetDropInterfaceDown:sum(packetBytes) 0
scalar MultiCell_X2Mesh.eNodeB2.pppIf packetDropNoCarrier:count 0
scalar MultiCell_X2Mesh.eNodeB2.pppIf packetDropNoCarrier:sum(packetBytes) 0
scalar MultiCell_X2Mesh.eNodeB2.x2ppp[0].queue queueLength:last 0
scalar MultiCell_X2Mesh.eNodeB2.x2ppp[0].queue queueLength:max 0
scalar MultiCell_X2Mesh.eNodeB2.x2ppp[0].queue queueLength:timeavg 0
scalar MultiCell_X2Mesh.eNodeB2.x2ppp[0].queue queueBitLength:last 0
scalar MultiCell_X2Mesh.eNodeB2.x2ppp[0].queue queueBitLength:max 0
scalar MultiCell_X2Mesh.eNodeB2.x2ppp[0].queue queueBitLength:timeavg 0
scalar MultiCell_X2Mesh.eNodeB2.x2ppp[0].queue outgoingPackets:count 4
scalar MultiCell_X2Mesh.eNodeB2.x2ppp[0].queue outgoingPacketLengths:sum 3456
scalar MultiCell_X2Mesh.eNodeB2.x2ppp[0].queue incomingPackets:count 4
scalar MultiCell_X2Mesh.eNodeB2.x2ppp[0].queue incomingPacketLengths:sum 3456
scalar MultiCell_X2Mesh.eNodeB2.x2ppp[0].queue droppedPacketsQueueOverflow:count 0
scalar MultiCell_X2Mesh.eNodeB2.x2ppp[0].queue droppedPacketLengthsQueueOverflow:sum 0
scalar MultiCell_X2Mesh.eNodeB2.x2ppp[0].ppp transmissionState:timeavg 1.8399999999999999e-08
scalar MultiCell_X2Mesh.eNodeB2.x2ppp[0].ppp rxPkOk:count 4
scalar MultiCell_X2Mesh.eNodeB2.x2ppp[0].ppp rxPkOk:sum(packetBytes) 460
scalar MultiCell_X2Mesh.eNodeB2.x2ppp[0].ppp txPk:count 4
scalar MultiCell_X2Mesh.eNodeB2.x2ppp[0].ppp txPk:sum(packetBytes) 460
scalar MultiCell_X2Mesh.eNodeB2.x2ppp[0].ppp rcvdPkFromHl:count 4
scalar MultiCell_X2Mesh.eNodeB2.x2ppp[0].ppp rcvdPkFromHl:sum(packetBytes) 432
scalar MultiCell_X2Mesh.eNodeB2.x2ppp[0].ppp passedUpPk:count 4
scalar MultiCell_X2Mesh.eNodeB2.x2ppp[0].ppp passedUpPk:sum(packetBytes) 432
scalar MultiCell_X2Mesh.eNodeB2.x2ppp[0].ppp packetDropIncorrectlyReceived:count 0
scalar MultiCell_X2Mesh.eNodeB2.x2ppp[0].ppp packetDropIncorrectlyReceived:sum(packetBytes) 0
scalar MultiCell_X2Mesh.eNodeB2.x2ppp[0].ppp packetDropInterfaceDown:count 0
scalar MultiCell_X2Mesh.eNodeB2.x2ppp[0].ppp packetDropInterfaceDown:sum(packetBytes) 0
scalar MultiCell_X2Mesh.eNodeB2.x2ppp[0] packetDropInterfaceDown:count 0
scalar MultiCell_X2Mesh.eNodeB2.x2ppp[0] packetDropInterfaceDown:sum(packetBytes) 0
scalar MultiCell_X2Mesh.eNodeB2.x2ppp[0] packetDropNoCarrier:count 0
scalar MultiCell_X2Mesh.eNodeB2.x2ppp[0] packetDropNoCarrier:sum(packetBytes) 0
scalar MultiCell_X2Mesh.eNodeB2.x2ppp[1].queue queueLength:last 0
scalar MultiCell_X2Mesh.eNodeB2.x2ppp[1].queue queueLength:max 0
scalar MultiCell_X2Mesh.eNodeB2.x2ppp[1].queue queueLength:timeavg 0
scalar MultiCell_X2Mesh.eNodeB2.x2ppp[1].queue queueBitLength:last 0
scalar MultiCell_X2Mesh.eNodeB2.x2ppp[1].queue queueBitLength:max 0
scalar MultiCell_X2Mesh.eNodeB2.x2ppp[1].queue queueBitLength:timeavg 0
scalar MultiCell_X2Mesh.eNodeB2.x2ppp[1].queue outgoingPackets:count 4
scalar MultiCell_X2Mesh.eNodeB2.x2ppp[1].queue outgoingPacketLengths:sum 3456
scalar MultiCell_X2Mesh.eNodeB2.x2ppp[1].queue incomingPackets:count 4
scalar MultiCell_X2Mesh.eNodeB2.x2ppp[1].queue incomingPacketLengths:sum 3456
scalar MultiCell_X2Mesh.eNodeB2.x2ppp[1].queue droppedPacketsQueueOverflow:count 0
scalar MultiCell_X2Mesh.eNodeB2.x2ppp[1].queue droppedPacketLengthsQueueOverflow:sum 0
scalar MultiCell_X2Mesh.eNodeB2.x2ppp[1].ppp transmissionState:timeavg 1.8399999999999999e-08
scalar MultiCell_X2Mesh.eNodeB2.x2ppp[1].ppp rxPkOk:count 4
scalar MultiCell_X2Mesh.eNodeB2.x2ppp[1].ppp rxPkOk:sum(packetBytes) 460
scalar MultiCell_X2Mesh.eNodeB2.x2ppp[1].ppp txPk:count 4
scalar MultiCell_X2Mesh.eNodeB2.x2ppp[1].ppp txPk:sum(packetBytes) 460
scalar MultiCell_X2Mesh.eNodeB2.x2ppp[1].ppp rcvdPkFromHl:count 4
scalar MultiCell_X2Mesh.eNodeB2.x2ppp[1].ppp rcvdPkFromHl:sum(packetBytes) 432
scalar MultiCell_X2Mesh.eNodeB2.x2ppp[1].ppp passedUpPk:count 4
scalar MultiCell_X2Mesh.eNodeB2.x2ppp[1].ppp passedUpPk:sum(packetBytes) 432
scalar MultiCell_X2Mesh.eNodeB2.x2ppp[1].ppp packetDropIncorrectlyReceived:count 0
scalar MultiCell_X2Mesh.eNodeB2.x2ppp[1].ppp packetDropIncorrectlyReceived:sum(packetBytes) 0
scalar MultiCell_X2Mesh.eNodeB2.x2ppp[1].ppp packetDropInterfaceDown:count 0
scalar MultiCell_X2Mesh.eNodeB2.x2ppp[1].ppp packetDropInterfaceDown:sum(packetBytes) 0
scalar MultiCell_X2Mesh.eNodeB2.x2ppp[1] packetDropInterfaceDown:count 0
scalar MultiCell_X2Mesh.eNodeB2.x2ppp[1] packetDropInterfaceDown:sum(packetBytes) 0
scalar MultiCell_X2Mesh.eNodeB2.x2ppp[1] packetDropNoCarrier:count 0
scalar MultiCell_X2Mesh.eNodeB2.x2ppp[1] packetDropNoCarrier:sum(packetBytes) 0
scalar MultiCell_X2Mesh.eNodeB2.pppMEHostIf.queue queueLength:last 0
scalar MultiCell_X2Mesh.eNodeB2.pppMEHostIf.queue queueLength:max 0
scalar MultiCell_X2Mesh.eNodeB2.pppMEHostIf.queue queueLength:timeavg 0
scalar MultiCell_X2Mesh.eNodeB2.pppMEHostIf.queue queueBitLength:last 0
scalar MultiCell_X2Mesh.eNodeB2.pppMEHostIf.queue queueBitLength:max 0
scalar MultiCell_X2Mesh.eNodeB2.pppMEHostIf.queue queueBitLength:timeavg 0
scalar MultiCell_X2Mesh.eNodeB2.pppMEHostIf.queue outgoingPackets:count 0
scalar MultiCell_X2Mesh.eNodeB2.pppMEHostIf.queue outgoingPacketLengths:sum 0
scalar MultiCell_X2Mesh.eNodeB2.pppMEHostIf.queue incomingPackets:count 0
scalar MultiCell_X2Mesh.eNodeB2.pppMEHostIf.queue incomingPacketLengths:sum 0
scalar MultiCell_X2Mesh.eNodeB2.pppMEHostIf.queue droppedPacketsQueueOverflow:count 0
scalar MultiCell_X2Mesh.eNodeB2.pppMEHostIf.queue droppedPacketLengthsQueueOverflow:sum 0
scalar MultiCell_X2Mesh.eNodeB2.pppMEHostIf.ppp transmissionState:timeavg 0
scalar MultiCell_X2Mesh.eNodeB2.pppMEHostIf.ppp rxPkOk:count 0
scalar MultiCell_X2Mesh.eNodeB2.pppMEHostIf.ppp rxPkOk:sum(packetBytes) 0
scalar MultiCell_X2Mesh.eNodeB2.pppMEHostIf.ppp txPk:count 0
scalar MultiCell_X2Mesh.eNodeB2.pppMEHostIf.ppp txPk:sum(packetBytes) 0
scalar MultiCell_X2Mesh.eNodeB2.pppMEHostIf.ppp rcvdPkFromHl:count 0
scalar MultiCell_X2Mesh.eNodeB2.pppMEHostIf.ppp rcvdPkFromHl:sum(packetBytes) 0
scalar MultiCell_X2Mesh.eNodeB2.pppMEHostIf.ppp passedUpPk:count 0
scalar MultiCell_X2Mesh.eNodeB2.pppMEHostIf.ppp passedUpPk:sum(packetBytes) 0
scalar MultiCell_X2Mesh.eNodeB2.pppMEHostIf.ppp packetDropIncorrectlyReceived:count 0
scalar MultiCell_X2Mesh.eNodeB2.pppMEHostIf.ppp packetDropIncorrectlyReceived:sum(packetBytes) 0
scalar MultiCell_X2Mesh.eNodeB2.pppMEHostIf.ppp packetDropInterfaceDown:count 0
scalar MultiCell_X2Mesh.eNodeB2.pppMEHostIf.ppp packetDropInterfaceDown:sum(packetBytes) 0
scalar MultiCell_X2Mesh.eNodeB2.pppMEHostIf packetDropInterfaceDown:count 0
scalar MultiCell_X2Mesh.eNodeB2.pppMEHostIf packetDropInterfaceDown:sum(packetBytes) 0
scalar MultiCell_X2Mesh.eNodeB2.pppMEHostIf packetDropNoCarrier:count 0
scalar MultiCell_X2Mesh.eNodeB2.pppMEHostIf packetDropNoCarrier:sum(packetBytes) 0
scalar MultiCell_X2Mesh.eNodeB2.ipv4.ip packetDropAddressResolutionFailed:count 0
scalar MultiCell_X2Mesh.eNodeB2.ipv4.ip packetDropAddressResolutionFailed:sum(packetBytes) 0
scalar MultiCell_X2Mesh.eNodeB2.ipv4.ip packetDropHopLimitReached:count 0
scalar MultiCell_X2Mesh.eNodeB2.ipv4.ip packetDropHopLimitReached:sum(packetBytes) 0
scalar MultiCell_X2Mesh.eNodeB2.ipv4.ip packetDropForwardingDisabled:count 0
scalar MultiCell_X2Mesh.eNodeB2.ipv4.ip packetDropForwardingDisabled:sum(packetBytes) 0
scalar MultiCell_X2Mesh.eNodeB2.ipv4.ip packetDropNoInterfaceFound:count 0
scalar MultiCell_X2Mesh.eNodeB2.ipv4.ip packetDropNoInterfaceFound:sum(packetBytes) 0
scalar MultiCell_X2Mesh.eNodeB2.ipv4.ip packetDropNoRouteFound:count 0
scalar MultiCell_X2Mesh.eNodeB2.ipv4.ip packetDropNoRouteFound:sum(packetBytes) 0
scalar MultiCell_X2Mesh.eNodeB2.ipv4.ip packetDropUndefined:count 0
scalar MultiCell_X2Mesh.eNodeB2.ipv4.ip packetDropUndefined:sum(packetBytes) 0
scalar MultiCell_X2Mesh.eNodeB2.ipv4.arp arpResolutionFailed:count 0
scalar MultiCell_X2Mesh.eNodeB2.ipv4.arp arpResolutionCompleted:count 0
scalar MultiCell_X2Mesh.eNodeB2.ipv4.arp arpResolutionInitiated:count 0
scalar MultiCell_X2Mesh.eNodeB2.ipv4.arp arpReplySent:count 0
scalar MultiCell_X2Mesh.eNodeB2.ipv4.arp arpReplySent:sum(packetBytes) 0
scalar MultiCell_X2Mesh.eNodeB2.ipv4.arp arpRequestSent:count 0
scalar MultiCell_X2Mesh.eNodeB2.ipv4.arp arpRequestSent:sum(packetBytes) 0
scalar MultiCell_X2Mesh.eNodeB2.udp packetReceived:count 0
scalar MultiCell_X2Mesh.eNodeB2.udp packetReceived:sum(packetBytes) 0
scalar MultiCell_X2Mesh.eNodeB2.udp packetSent:count 0
scalar MultiCell_X2Mesh.eNodeB2.udp packetSent:sum(packetBytes) 0
scalar MultiCell_X2Mesh.eNodeB2.udp passedUpPk:count 0
scalar MultiCell_X2Mesh.eNodeB2.udp droppedPkWrongPort:count 0
scalar MultiCell_X2Mesh.eNodeB2.udp droppedPkBadChecksum:count 0
scalar MultiCell_X2Mesh.eNodeB2.x2App[0].client packetReceived:count 0
scalar MultiCell_X2Mesh.eNodeB2.x2App[0].client packetReceived:sum(packetBytes) 0
scalar MultiCell_X2Mesh.eNodeB2.x2App[0].client packetSent:count 0
scalar MultiCell_X2Mesh.eNodeB2.x2App[0].client packetSent:sum(packetBytes) 0
scalar MultiCell_X2Mesh.eNodeB2.x2App[0].client echoedPk:count 0
scalar MultiCell_X2Mesh.eNodeB2.x2App[0].client echoedPk:sum(packetBytes) 0
scalar MultiCell_X2Mesh.eNodeB2.x2App[0].server "bytes rcvd" 0
scalar MultiCell_X2Mesh.eNodeB2.x2App[0].server throughput -nan
scalar MultiCell_X2Mesh.eNodeB2.x2App[1].client packetReceived:count 0
scalar MultiCell_X2Mesh.eNodeB2.x2App[1].client packetReceived:sum(packetBytes) 0
scalar MultiCell_X2Mesh.eNodeB2.x2App[1].client packetSent:count 0
scalar MultiCell_X2Mesh.eNodeB2.x2App[1].client packetSent:sum(packetBytes) 0
scalar MultiCell_X2Mesh.eNodeB2.x2App[1].client echoedPk:count 0
scalar MultiCell_X2Mesh.eNodeB2.x2App[1].client echoedPk:sum(packetBytes) 0
scalar MultiCell_X2Mesh.eNodeB2.x2App[1].server "bytes rcvd" 0
scalar MultiCell_X2Mesh.eNodeB2.x2App[1].server throughput -nan
scalar MultiCell_X2Mesh.eNodeB3.cellularNic.pdcp sentPacketToLowerLayer:count 0
scalar MultiCell_X2Mesh.eNodeB3.cellularNic.pdcp sentPacketToLowerLayer:sum(packetBytes) 0
scalar MultiCell_X2Mesh.eNodeB3.cellularNic.pdcp sentPacketToUpperLayer:count 0
scalar MultiCell_X2Mesh.eNodeB3.cellularNic.pdcp sentPacketToUpperLayer:sum(packetBytes) 0
scalar MultiCell_X2Mesh.eNodeB3.cellularNic.pdcp receivedPacketFromLowerLayer:count 0
scalar MultiCell_X2Mesh.eNodeB3.cellularNic.pdcp receivedPacketFromLowerLayer:sum(packetBytes) 0
scalar MultiCell_X2Mesh.eNodeB3.cellularNic.pdcp receivedPacketFromUpperLayer:count 0
scalar MultiCell_X2Mesh.eNodeB3.cellularNic.pdcp receivedPacketFromUpperLayer:sum(packetBytes) 0
scalar MultiCell_X2Mesh.eNodeB3.cellularNic.rlc.tm rlcPacketLossUl:mean -nan
scalar MultiCell_X2Mesh.eNodeB3.cellularNic.rlc.tm rlcPacketLossUl:sum 0
scalar MultiCell_X2Mesh.eNodeB3.cellularNic.rlc.tm rlcPacketLossDl:mean -nan
scalar MultiCell_X2Mesh.eNodeB3.cellularNic.rlc.tm rlcPacketLossDl:sum 0
scalar MultiCell_X2Mesh.eNodeB3.cellularNic.rlc.tm sentPacketToLowerLayer:count 0
scalar MultiCell_X2Mesh.eNodeB3.cellularNic.rlc.tm sentPacketToLowerLayer:sum(packetBytes) 0
scalar MultiCell_X2Mesh.eNodeB3.cellularNic.rlc.tm sentPacketToUpperLayer:count 0
scalar MultiCell_X2Mesh.eNodeB3.cellularNic.rlc.tm sentPacketToUpperLayer:sum(packetBytes) 0
scalar MultiCell_X2Mesh.eNodeB3.cellularNic.rlc.tm receivedPacketFromLowerLayer:count 0
scalar MultiCell_X2Mesh.eNodeB3.cellularNic.rlc.tm receivedPacketFromLowerLayer:sum(packetBytes) 0
scalar MultiCell_X2Mesh.eNodeB3.cellularNic.rlc.tm receivedPacketFromUpperLayer:count 0
scalar MultiCell_X2Mesh.eNodeB3.cellularNic.rlc.tm receivedPacketFromUpperLayer:sum(packetBytes) 0
scalar MultiCell_X2Mesh.eNodeB3.cellularNic.rlc.um rlcCellThroughputUl:simu5g_rateavg -nan
scalar MultiCell_X2Mesh.eNodeB3.cellularNic.rlc.um rlcCellThroughputDl:simu5g_rateavg -nan
scalar MultiCell_X2Mesh.eNodeB3.cellularNic.rlc.um rlcPduThroughputUl:simu5g_rateavg -nan
scalar MultiCell_X2Mesh.eNodeB3.cellularNic.rlc.um rlcPduThroughputDl:simu5g_rateavg -nan
scalar MultiCell_X2Mesh.eNodeB3.cellularNic.rlc.um rlcPduDelayUl:mean -nan
scalar MultiCell_X2Mesh.eNodeB3.cellularNic.rlc.um rlcPduDelayDl:mean -nan
scalar MultiCell_X2Mesh.eNodeB3.cellularNic.rlc.um rlcThroughputUl:simu5g_rateavg -nan
scalar MultiCell_X2Mesh.eNodeB3.cellularNic.rlc.um rlcThroughputDl:simu5g_rateavg -nan
scalar MultiCell_X2Mesh.eNodeB3.cellularNic.rlc.um rlcDelayUl:mean -nan
scalar MultiCell_X2Mesh.eNodeB3.cellularNic.rlc.um rlcDelayDl:mean -nan
scalar MultiCell_X2Mesh.eNodeB3.cellularNic.rlc.um sentPacketToLowerLayer:count 0
scalar MultiCell_X2Mesh.eNodeB3.cellularNic.rlc.um sentPacketToLowerLayer:sum(packetBytes) 0
scalar MultiCell_X2Mesh.eNodeB3.cellularNic.rlc.um sentPacketToUpperLayer:count 0
scalar MultiCell_X2Mesh.eNodeB3.cellularNic.rlc.um sentPacketToUpperLayer:sum(packetBytes) 0
scalar MultiCell_X2Mesh.eNodeB3.cellularNic.rlc.um receivedPacketFromLowerLayer:count 0
scalar MultiCell_X2Mesh.eNodeB3.cellularNic.rlc.um receivedPacketFromLowerLayer:sum(packetBytes) 0
scalar MultiCell_X2Mesh.eNodeB3.cellularNic.rlc.um receivedPacketFromUpperLayer:count 0
scalar MultiCell_X2Mesh.eNodeB3.cellularNic.rlc.um receivedPacketFromUpperLayer:sum(packetBytes) 0
scalar MultiCell_X2Mesh.eNodeB3.cellularNic.rlc.am rlcPacketLossTotal:mean -nan
[...]
scalar MultiCell_X2Mesh.eNodeB3.sctp "Bandwidth 14:10.0.2.1:max" -inf
scalar MultiCell_X2Mesh.eNodeB3.sctp "Bandwidth 14:10.0.2.1:starttime" nan
scalar MultiCell_X2Mesh.eNodeB3.sctp "Bandwidth 14:10.0.2.1:endtime" nan
scalar MultiCell_X2Mesh.eNodeB3.sctp "RTO 14:10.0.2.1:count" 0
scalar MultiCell_X2Mesh.eNodeB3.sctp "RTO 14:10.0.2.1:sum" 0
scalar MultiCell_X2Mesh.eNodeB3.sctp "RTO 14:10.0.2.1:sumweights" 0
scalar MultiCell_X2Mesh.eNodeB3.sctp "RTO 14:10.0.2.1:mean" -nan
scalar MultiCell_X2Mesh.eNodeB3.sctp "RTO 14:10.0.2.1:stddev" nan
scalar MultiCell_X2Mesh.eNodeB3.sctp "RTO 14:10.0.2.1:min" inf
scalar MultiCell_X2Mesh.eNodeB3.sctp "RTO 14:10.0.2.1:max" -inf
scalar MultiCell_X2Mesh.eNodeB3.sctp "RTO 14:10.0.2.1:starttime" nan
scalar MultiCell_X2Mesh.eNodeB3.sctp "RTO 14:10.0.2.1:endtime" nan
scalar MultiCell_X2Mesh.eNodeB3.sctp "Slow Start Threshold 14:192.168.4.2:count" 0
scalar MultiCell_X2Mesh.eNodeB3.sctp "Slow Start Threshold 14:192.168.4.2:sum" 0
scalar MultiCell_X2Mesh.eNodeB3.sctp "Slow Start Threshold 14:192.168.4.2:sumweights" 0
scalar MultiCell_X2Mesh.eNodeB3.sctp "Slow Start Threshold 14:192.168.4.2:mean" -nan
scalar MultiCell_X2Mesh.eNodeB3.sctp "Slow Start Threshold 14:192.168.4.2:stddev" nan
scalar MultiCell_X2Mesh.eNodeB3.sctp "Slow Start Threshold 14:192.168.4.2:min" inf
scalar MultiCell_X2Mesh.eNodeB3.sctp "Slow Start Threshold 14:192.168.4.2:max" -inf
scalar MultiCell_X2Mesh.eNodeB3.sctp "Slow Start Threshold 14:192.168.4.2:starttime" nan
scalar MultiCell_X2Mesh.eNodeB3.sctp "Slow Start Threshold 14:192.168.4.2:endtime" nan
scalar MultiCell_X2Mesh.eNodeB3.sctp "Congestion Window 14:192.168.4.2:count" 0
scalar MultiCell_X2Mesh.eNodeB3.sctp "Congestion Window 14:192.168.4.2:sum" 0
scalar MultiCell_X2Mesh.eNodeB3.sctp "Congestion Window 14:192.168.4.2:sumweights" 0
scalar MultiCell_X2Mesh.eNodeB3.sctp "Congestion Window 14:192.168.4.2:mean" -nan
scalar MultiCell_X2Mesh.eNodeB3.sctp "Congestion Window 14:192.168.4.2:stddev" nan
scalar MultiCell_X2Mesh.eNodeB3.sctp "Congestion Window 14:192.168.4.2:min" inf
scalar MultiCell_X2Mesh.eNodeB3.sctp "Congestion Window 14:192.168.4.2:max" -inf
scalar MultiCell_X2Mesh.eNodeB3.sctp "Congestion Window 14:192.168.4.2:starttime" nan
scalar MultiCell_X2Mesh.eNodeB3.sctp "Congestion Window 14:192.168.4.2:endtime" nan
scalar MultiCell_X2Mesh.eNodeB3.sctp "Bandwidth 14:192.168.4.2:count" 0
scalar MultiCell_X2Mesh.eNodeB3.sctp "Bandwidth 14:192.168.4.2:sum" 0
scalar MultiCell_X2Mesh.eNodeB3.sctp "Bandwidth 14:192.168.4.2:sumweights" 0
scalar MultiCell_X2Mesh.eNodeB3.sctp "Bandwidth 14:192.168.4.2:mean" -nan
scalar MultiCell_X2Mesh.eNodeB3.sctp "Bandwidth 14:192.168.4.2:stddev" nan
scalar MultiCell_X2Mesh.eNodeB3.sctp "Bandwidth 14:192.168.4.2:min" inf
scalar MultiCell_X2Mesh.eNodeB3.sctp "Bandwidth 14:192.168.4.2:max" -inf
scalar MultiCell_X2Mesh.eNodeB3.sctp "Bandwidth 14:192.168.4.2:starttime" nan
scalar MultiCell_X2Mesh.eNodeB3.sctp "Bandwidth 14:192.168.4.2:endtime" nan
scalar MultiCell_X2Mesh.eNodeB3.sctp "RTO 14:192.168.4.2:count" 0
scalar MultiCell_X2Mesh.eNodeB3.sctp "RTO 14:192.168.4.2:sum" 0
scalar MultiCell_X2Mesh.eNodeB3.sctp "RTO 14:192.168.4.2:sumweights" 0
scalar MultiCell_X2Mesh.eNodeB3.sctp "RTO 14:192.168.4.2:mean" -nan
scalar MultiCell_X2Mesh.eNodeB3.sctp "RTO 14:192.168.4.2:stddev" nan
scalar MultiCell_X2Mesh.eNodeB3.sctp "RTO 14:192.168.4.2:min" inf
scalar MultiCell_X2Mesh.eNodeB3.sctp "RTO 14:192.168.4.2:max" -inf
scalar MultiCell_X2Mesh.eNodeB3.sctp "RTO 14:192.168.4.2:starttime" nan
scalar MultiCell_X2Mesh.eNodeB3.sctp "RTO 14:192.168.4.2:endtime" nan
scalar MultiCell_X2Mesh.eNodeB3.sctp "Slow Start Threshold 14:192.168.7.1:count" 0
scalar MultiCell_X2Mesh.eNodeB3.sctp "Slow Start Threshold 14:192.168.7.1:sum" 0
scalar MultiCell_X2Mesh.eNodeB3.sctp "Slow Start Threshold 14:192.168.7.1:sumweights" 0
scalar MultiCell_X2Mesh.eNodeB3.sctp "Slow Start Threshold 14:192.168.7.1:mean" -nan
scalar MultiCell_X2Mesh.eNodeB3.sctp "Slow Start Threshold 14:192.168.7.1:stddev" nan
scalar MultiCell_X2Mesh.eNodeB3.sctp "Slow Start Threshold 14:192.168.7.1:min" inf
scalar MultiCell_X2Mesh.eNodeB3.sctp "Slow Start Threshold 14:192.168.7.1:max" -inf
scalar MultiCell_X2Mesh.eNodeB3.sctp "Slow Start Threshold 14:192.168.7.1:starttime" nan
scalar MultiCell_X2Mesh.eNodeB3.sctp "Slow Start Threshold 14:192.168.7.1:endtime" nan
scalar MultiCell_X2Mesh.eNodeB3.sctp "Congestion Window 14:192.168.7.1:count" 0
scalar MultiCell_X2Mesh.eNodeB3.sctp "Congestion Window 14:192.168.7.1:sum" 0
scalar MultiCell_X2Mesh.eNodeB3.sctp "Congestion Window 14:192.168.7.1:sumweights" 0
scalar MultiCell_X2Mesh.eNodeB3.sctp "Congestion Window 14:192.168.7.1:mean" -nan
scalar MultiCell_X2Mesh.eNodeB3.sctp "Congestion Window 14:192.168.7.1:stddev" nan
scalar MultiCell_X2Mesh.eNodeB3.sctp "Congestion Window 14:192.168.7.1:min" inf
scalar MultiCell_X2Mesh.eNodeB3.sctp "Congestion Window 14:192.168.7.1:max" -inf
scalar MultiCell_X2Mesh.eNodeB3.sctp "Congestion Window 14:192.168.7.1:starttime" nan
scalar MultiCell_X2Mesh.eNodeB3.sctp "Congestion Window 14:192.168.7.1:endtime" nan
scalar MultiCell_X2Mesh.eNodeB3.sctp "Bandwidth 14:192.168.7.1:count" 0
scalar MultiCell_X2Mesh.eNodeB3.sctp "Bandwidth 14:192.168.7.1:sum" 0
scalar MultiCell_X2Mesh.eNodeB3.sctp "Bandwidth 14:192.168.7.1:sumweights" 0
scalar MultiCell_X2Mesh.eNodeB3.sctp "Bandwidth 14:192.168.7.1:mean" -nan
scalar MultiCell_X2Mesh.eNodeB3.sctp "Bandwidth 14:192.168.7.1:stddev" nan
scalar MultiCell_X2Mesh.eNodeB3.sctp "Bandwidth 14:192.168.7.1:min" inf
scalar MultiCell_X2Mesh.eNodeB3.sctp "Bandwidth 14:192.168.7.1:max" -inf
scalar MultiCell_X2Mesh.eNodeB3.sctp "Bandwidth 14:192.168.7.1:starttime" nan
scalar MultiCell_X2Mesh.eNodeB3.sctp "Bandwidth 14:192.168.7.1:endtime" nan
scalar MultiCell_X2Mesh.eNodeB3.sctp "RTO 14:192.168.7.1:count" 0
scalar MultiCell_X2Mesh.eNodeB3.sctp "RTO 14:192.168.7.1:sum" 0
scalar MultiCell_X2Mesh.eNodeB3.sctp "RTO 14:192.168.7.1:sumweights" 0
scalar MultiCell_X2Mesh.eNodeB3.sctp "RTO 14:192.168.7.1:mean" -nan
scalar MultiCell_X2Mesh.eNodeB3.sctp "RTO 14:192.168.7.1:stddev" nan
scalar MultiCell_X2Mesh.eNodeB3.sctp "RTO 14:192.168.7.1:min" inf
scalar MultiCell_X2Mesh.eNodeB3.sctp "RTO 14:192.168.7.1:max" -inf
scalar MultiCell_X2Mesh.eNodeB3.sctp "RTO 14:192.168.7.1:starttime" nan
scalar MultiCell_X2Mesh.eNodeB3.sctp "RTO 14:192.168.7.1:endtime" nan
scalar MultiCell_X2Mesh.eNodeB3.sctp "Slow Start Threshold 15:10.0.0.2:count" 0
scalar MultiCell_X2Mesh.eNodeB3.sctp "Slow Start Threshold 15:10.0.0.2:sum" 0
scalar MultiCell_X2Mesh.eNodeB3.sctp "Slow Start Threshold 15:10.0.0.2:sumweights" 0
scalar MultiCell_X2Mesh.eNodeB3.sctp "Slow Start Threshold 15:10.0.0.2:mean" -nan
scalar MultiCell_X2Mesh.eNodeB3.sctp "Slow Start Threshold 15:10.0.0.2:stddev" nan
scalar MultiCell_X2Mesh.eNodeB3.sctp "Slow Start Threshold 15:10.0.0.2:min" inf
scalar MultiCell_X2Mesh.eNodeB3.sctp "Slow Start Threshold 15:10.0.0.2:max" -inf
scalar MultiCell_X2Mesh.eNodeB3.sctp "Slow Start Threshold 15:10.0.0.2:starttime" nan
scalar MultiCell_X2Mesh.eNodeB3.sctp "Slow Start Threshold 15:10.0.0.2:endtime" nan
scalar MultiCell_X2Mesh.eNodeB3.sctp "Congestion Window 15:10.0.0.2:count" 0
scalar MultiCell_X2Mesh.eNodeB3.sctp "Congestion Window 15:10.0.0.2:sum" 0
scalar MultiCell_X2Mesh.eNodeB3.sctp "Congestion Window 15:10.0.0.2:sumweights" 0
scalar MultiCell_X2Mesh.eNodeB3.sctp "Congestion Window 15:10.0.0.2:mean" -nan
scalar MultiCell_X2Mesh.eNodeB3.sctp "Congestion Window 15:10.0.0.2:stddev" nan
scalar MultiCell_X2Mesh.eNodeB3.sctp "Congestion Window 15:10.0.0.2:min" inf
scalar MultiCell_X2Mesh.eNodeB3.sctp "Congestion Window 15:10.0.0.2:max" -inf
scalar MultiCell_X2Mesh.eNodeB3.sctp "Congestion Window 15:10.0.0.2:starttime" nan
scalar MultiCell_X2Mesh.eNodeB3.sctp "Congestion Window 15:10.0.0.2:endtime" nan
scalar MultiCell_X2Mesh.eNodeB3.sctp "Bandwidth 15:10.0.0.2:count" 0
scalar MultiCell_X2Mesh.eNodeB3.sctp "Bandwidth 15:10.0.0.2:sum" 0
scalar MultiCell_X2Mesh.eNodeB3.sctp "Bandwidth 15:10.0.0.2:sumweights" 0
scalar MultiCell_X2Mesh.eNodeB3.sctp "Bandwidth 15:10.0.0.2:mean" -nan
scalar MultiCell_X2Mesh.eNodeB3.sctp "Bandwidth 15:10.0.0.2:stddev" nan
scalar MultiCell_X2Mesh.eNodeB3.sctp "Bandwidth 15:10.0.0.2:min" inf
scalar MultiCell_X2Mesh.eNodeB3.sctp "Bandwidth 15:10.0.0.2:max" -inf
scalar MultiCell_X2Mesh.eNodeB3.sctp "Bandwidth 15:10.0.0.2:starttime" nan
scalar MultiCell_X2Mesh.eNodeB3.sctp "Bandwidth 15:10.0.0.2:endtime" nan
scalar MultiCell_X2Mesh.eNodeB3.sctp "RTO 15:10.0.0.2:count" 0
scalar MultiCell_X2Mesh.eNodeB3.sctp "RTO 15:10.0.0.2:sum" 0
scalar MultiCell_X2Mesh.eNodeB3.sctp "RTO 15:10.0.0.2:sumweights" 0
scalar MultiCell_X2Mesh.eNodeB3.sctp "RTO 15:10.0.0.2:mean" -nan
scalar MultiCell_X2Mesh.eNodeB3.sctp "RTO 15:10.0.0.2:stddev" nan
scalar MultiCell_X2Mesh.eNodeB3.sctp "RTO 15:10.0.0.2:min" inf
scalar MultiCell_X2Mesh.eNodeB3.sctp "RTO 15:10.0.0.2:max" -inf
scalar MultiCell_X2Mesh.eNodeB3.sctp "RTO 15:10.0.0.2:starttime" nan
scalar MultiCell_X2Mesh.eNodeB3.sctp "RTO 15:10.0.0.2:endtime" nan
scalar MultiCell_X2Mesh.eNodeB3.sctp "Slow Start Threshold 15:10.0.1.2:count" 0
scalar MultiCell_X2Mesh.eNodeB3.sctp "Slow Start Threshold 15:10.0.1.2:sum" 0
scalar MultiCell_X2Mesh.eNodeB3.sctp "Slow Start Threshold 15:10.0.1.2:sumweights" 0
scalar MultiCell_X2Mesh.eNodeB3.sctp "Slow Start Threshold 15:10.0.1.2:mean" -nan
scalar MultiCell_X2Mesh.eNodeB3.sctp "Slow Start Threshold 15:10.0.1.2:stddev" nan
scalar MultiCell_X2Mesh.eNodeB3.sctp "Slow Start Threshold 15:10.0.1.2:min" inf
scalar MultiCell_X2Mesh.eNodeB3.sctp "Slow Start Threshold 15:10.0.1.2:max" -inf
scalar MultiCell_X2Mesh.eNodeB3.sctp "Slow Start Threshold 15:10.0.1.2:starttime" nan
scalar MultiCell_X2Mesh.eNodeB3.sctp "Slow Start Threshold 15:10.0.1.2:endtime" nan
scalar MultiCell_X2Mesh.eNodeB3.sctp "Congestion Window 15:10.0.1.2:count" 0
scalar MultiCell_X2Mesh.eNodeB3.sctp "Congestion Window 15:10.0.1.2:sum" 0
scalar MultiCell_X2Mesh.eNodeB3.sctp "Congestion Window 15:10.0.1.2:sumweights" 0
scalar MultiCell_X2Mesh.eNodeB3.sctp "Congestion Window 15:10.0.1.2:mean" -nan
scalar MultiCell_X2Mesh.eNodeB3.sctp "Congestion Window 15:10.0.1.2:stddev" nan
scalar MultiCell_X2Mesh.eNodeB3.sctp "Congestion Window 15:10.0.1.2:min" inf
scalar MultiCell_X2Mesh.eNodeB3.sctp "Congestion Window 15:10.0.1.2:max" -inf
scalar MultiCell_X2Mesh.eNodeB3.sctp "Congestion Window 15:10.0.1.2:starttime" nan
scalar MultiCell_X2Mesh.eNodeB3.sctp "Congestion Window 15:10.0.1.2:endtime" nan
scalar MultiCell_X2Mesh.eNodeB3.sctp "Bandwidth 15:10.0.1.2:count" 0
scalar MultiCell_X2Mesh.eNodeB3.sctp "Bandwidth 15:10.0.1.2:sum" 0
scalar MultiCell_X2Mesh.eNodeB3.sctp "Bandwidth 15:10.0.1.2:sumweights" 0
scalar MultiCell_X2Mesh.eNodeB3.sctp "Bandwidth 15:10.0.1.2:mean" -nan
scalar MultiCell_X2Mesh.eNodeB3.sctp "Bandwidth 15:10.0.1.2:stddev" nan
scalar MultiCell_X2Mesh.eNodeB3.sctp "Bandwidth 15:10.0.1.2:min" inf
scalar MultiCell_X2Mesh.eNodeB3.sctp "Bandwidth 15:10.0.1.2:max" -inf
scalar MultiCell_X2Mesh.eNodeB3.sctp "Bandwidth 15:10.0.1.2:starttime" nan
scalar MultiCell_X2Mesh.eNodeB3.sctp "Bandwidth 15:10.0.1.2:endtime" nan
scalar MultiCell_X2Mesh.eNodeB3.sctp "RTO 15:10.0.1.2:count" 0
scalar MultiCell_X2Mesh.eNodeB3.sctp "RTO 15:10.0.1.2:sum" 0
scalar MultiCell_X2Mesh.eNodeB3.sctp "RTO 15:10.0.1.2:sumweights" 0
scalar MultiCell_X2Mesh.eNodeB3.sctp "RTO 15:10.0.1.2:mean" -nan
scalar MultiCell_X2Mesh.eNodeB3.sctp "RTO 15:10.0.1.2:stddev" nan
scalar MultiCell_X2Mesh.eNodeB3.sctp "RTO 15:10.0.1.2:min" inf
scalar MultiCell_X2Mesh.eNodeB3.sctp "RTO 15:10.0.1.2:max" -inf
scalar MultiCell_X2Mesh.eNodeB3.sctp "RTO 15:10.0.1.2:starttime" nan
scalar MultiCell_X2Mesh.eNodeB3.sctp "RTO 15:10.0.1.2:endtime" nan
scalar MultiCell_X2Mesh.eNodeB3.sctp "Slow Start Threshold 15:10.0.3.1:count" 0
scalar MultiCell_X2Mesh.eNodeB3.sctp "Slow Start Threshold 15:10.0.3.1:sum" 0
scalar MultiCell_X2Mesh.eNodeB3.sctp "Slow Start Threshold 15:10.0.3.1:sumweights" 0
scalar MultiCell_X2Mesh.eNodeB3.sctp "Slow Start Threshold 15:10.0.3.1:mean" -nan
scalar MultiCell_X2Mesh.eNodeB3.sctp "Slow Start Threshold 15:10.0.3.1:stddev" nan
scalar MultiCell_X2Mesh.eNodeB3.sctp "Slow Start Threshold 15:10.0.3.1:min" inf
scalar MultiCell_X2Mesh.eNodeB3.sctp "Slow Start Threshold 15:10.0.3.1:max" -inf
scalar MultiCell_X2Mesh.eNodeB3.sctp "Slow Start Threshold 15:10.0.3.1:starttime" nan
scalar MultiCell_X2Mesh.eNodeB3.sctp "Slow Start Threshold 15:10.0.3.1:endtime" nan
scalar MultiCell_X2Mesh.eNodeB3.sctp "Congestion Window 15:10.0.3.1:count" 0
scalar MultiCell_X2Mesh.eNodeB3.sctp "Congestion Window 15:10.0.3.1:sum" 0
scalar MultiCell_X2Mesh.eNodeB3.sctp "Congestion Window 15:10.0.3.1:sumweights" 0
scalar MultiCell_X2Mesh.eNodeB3.sctp "Congestion Window 15:10.0.3.1:mean" -nan
scalar MultiCell_X2Mesh.eNodeB3.sctp "Congestion Window 15:10.0.3.1:stddev" nan
scalar MultiCell_X2Mesh.eNodeB3.sctp "Congestion Window 15:10.0.3.1:min" inf
scalar MultiCell_X2Mesh.eNodeB3.sctp "Congestion Window 15:10.0.3.1:max" -inf
scalar MultiCell_X2Mesh.eNodeB3.sctp "Congestion Window 15:10.0.3.1:starttime" nan
scalar MultiCell_X2Mesh.eNodeB3.sctp "Congestion Window 15:10.0.3.1:endtime" nan
scalar MultiCell_X2Mesh.eNodeB3.sctp "Bandwidth 15:10.0.3.1:count" 0
scalar MultiCell_X2Mesh.eNodeB3.sctp "Bandwidth 15:10.0.3.1:sum" 0
scalar MultiCell_X2Mesh.eNodeB3.sctp "Bandwidth 15:10.0.3.1:sumweights" 0
scalar MultiCell_X2Mesh.eNodeB3.sctp "Bandwidth 15:10.0.3.1:mean" -nan
scalar MultiCell_X2Mesh.eNodeB3.sctp "Bandwidth 15:10.0.3.1:stddev" nan
scalar MultiCell_X2Mesh.eNodeB3.sctp "Bandwidth 15:10.0.3.1:min" inf
scalar MultiCell_X2Mesh.eNodeB3.sctp "Bandwidth 15:10.0.3.1:max" -inf
scalar MultiCell_X2Mesh.eNodeB3.sctp "Bandwidth 15:10.0.3.1:starttime" nan
scalar MultiCell_X2Mesh.eNodeB3.sctp "Bandwidth 15:10.0.3.1:endtime" nan
scalar MultiCell_X2Mesh.eNodeB3.sctp "RTO 15:10.0.3.1:count" 0
scalar MultiCell_X2Mesh.eNodeB3.sctp "RTO 15:10.0.3.1:sum" 0
scalar MultiCell_X2Mesh.eNodeB3.sctp "RTO 15:10.0.3.1:sumweights" 0
scalar MultiCell_X2Mesh.eNodeB3.sctp "RTO 15:10.0.3.1:mean" -nan
scalar MultiCell_X2Mesh.eNodeB3.sctp "RTO 15:10.0.3.1:stddev" nan
scalar MultiCell_X2Mesh.eNodeB3.sctp "RTO 15:10.0.3.1:min" inf
scalar MultiCell_X2Mesh.eNodeB3.sctp "RTO 15:10.0.3.1:max" -inf
scalar MultiCell_X2Mesh.eNodeB3.sctp "RTO 15:10.0.3.1:starttime" nan
scalar MultiCell_X2Mesh.eNodeB3.sctp "RTO 15:10.0.3.1:endtime" nan
scalar MultiCell_X2Mesh.eNodeB3.sctp "Slow Start Threshold 15:192.168.5.2:count" 0
scalar MultiCell_X2Mesh.eNodeB3.sctp "Slow Start Threshold 15:192.168.5.2:sum" 0
scalar MultiCell_X2Mesh.eNodeB3.sctp "Slow Start Threshold 15:192.168.5.2:sumweights" 0
scalar MultiCell_X2Mesh.eNodeB3.sctp "Slow Start Threshold 15:192.168.5.2:mean" -nan
scalar MultiCell_X2Mesh.eNodeB3.sctp "Slow Start Threshold 15:192.168.5.2:stddev" nan
scalar MultiCell_X2Mesh.eNodeB3.sctp "Slow Start Threshold 15:192.168.5.2:min" inf
scalar MultiCell_X2Mesh.eNodeB3.sctp "Slow Start Threshold 15:192.168.5.2:max" -inf
scalar MultiCell_X2Mesh.eNodeB3.sctp "Slow Start Threshold 15:192.168.5.2:starttime" nan
scalar MultiCell_X2Mesh.eNodeB3.sctp "Slow Start Threshold 15:192.168.5.2:endtime" nan
scalar MultiCell_X2Mesh.eNodeB3.sctp "Congestion Window 15:192.168.5.2:count" 0
scalar MultiCell_X2Mesh.eNodeB3.sctp "Congestion Window 15:192.168.5.2:sum" 0
scalar MultiCell_X2Mesh.eNodeB3.sctp "Congestion Window 15:192.168.5.2:sumweights" 0
scalar MultiCell_X2Mesh.eNodeB3.sctp "Congestion Window 15:192.168.5.2:mean" -nan
scalar MultiCell_X2Mesh.eNodeB3.sctp "Congestion Window 15:192.168.5.2:stddev" nan
scalar MultiCell_X2Mesh.eNodeB3.sctp "Congestion Window 15:192.168.5.2:min" inf
scalar MultiCell_X2Mesh.eNodeB3.sctp "Congestion Window 15:192.168.5.2:max" -inf
scalar MultiCell_X2Mesh.eNodeB3.sctp "Congestion Window 15:192.168.5.2:starttime" nan
scalar MultiCell_X2Mesh.eNodeB3.sctp "Congestion Window 15:192.168.5.2:endtime" nan
scalar MultiCell_X2Mesh.eNodeB3.sctp "Bandwidth 15:192.168.5.2:count" 0
scalar MultiCell_X2Mesh.eNodeB3.sctp "Bandwidth 15:192.168.5.2:sum" 0
scalar MultiCell_X2Mesh.eNodeB3.sctp "Bandwidth 15:192.168.5.2:sumweights" 0
scalar MultiCell_X2Mesh.eNodeB3.sctp "Bandwidth 15:192.168.5.2:mean" -nan
scalar MultiCell_X2Mesh.eNodeB3.sctp "Bandwidth 15:192.168.5.2:stddev" nan
scalar MultiCell_X2Mesh.eNodeB3.sctp "Bandwidth 15:192.168.5.2:min" inf
scalar MultiCell_X2Mesh.eNodeB3.sctp "Bandwidth 15:192.168.5.2:max" -inf
scalar MultiCell_X2Mesh.eNodeB3.sctp "Bandwidth 15:192.168.5.2:starttime" nan
scalar MultiCell_X2Mesh.eNodeB3.sctp "Bandwidth 15:192.168.5.2:endtime" nan
scalar MultiCell_X2Mesh.eNodeB3.sctp "RTO 15:192.168.5.2:count" 0
scalar MultiCell_X2Mesh.eNodeB3.sctp "RTO 15:192.168.5.2:sum" 0
scalar MultiCell_X2Mesh.eNodeB3.sctp "RTO 15:192.168.5.2:sumweights" 0
scalar MultiCell_X2Mesh.eNodeB3.sctp "RTO 15:192.168.5.2:mean" -nan
scalar MultiCell_X2Mesh.eNodeB3.sctp "RTO 15:192.168.5.2:stddev" nan
scalar MultiCell_X2Mesh.eNodeB3.sctp "RTO 15:192.168.5.2:min" inf
scalar MultiCell_X2Mesh.eNodeB3.sctp "RTO 15:192.168.5.2:max" -inf
scalar MultiCell_X2Mesh.eNodeB3.sctp "RTO 15:192.168.5.2:starttime" nan
scalar MultiCell_X2Mesh.eNodeB3.sctp "RTO 15:192.168.5.2:endtime" nan
scalar MultiCell_X2Mesh.eNodeB3.sctp "Slow Start Threshold 15:192.168.8.1:count" 0
scalar MultiCell_X2Mesh.eNodeB3.sctp "Slow Start Threshold 15:192.168.8.1:sum" 0
scalar MultiCell_X2Mesh.eNodeB3.sctp "Slow Start Threshold 15:192.168.8.1:sumweights" 0
scalar MultiCell_X2Mesh.eNodeB3.sctp "Slow Start Threshold 15:192.168.8.1:mean" -nan
scalar MultiCell_X2Mesh.eNodeB3.sctp "Slow Start Threshold 15:192.168.8.1:stddev" nan
scalar MultiCell_X2Mesh.eNodeB3.sctp "Slow Start Threshold 15:192.168.8.1:min" inf
scalar MultiCell_X2Mesh.eNodeB3.sctp "Slow Start Threshold 15:192.168.8.1:max" -inf
scalar MultiCell_X2Mesh.eNodeB3.sctp "Slow Start Threshold 15:192.168.8.1:starttime" nan
scalar MultiCell_X2Mesh.eNodeB3.sctp "Slow Start Threshold 15:192.168.8.1:endtime" nan
scalar MultiCell_X2Mesh.eNodeB3.sctp "Congestion Window 15:192.168.8.1:count" 0
scalar MultiCell_X2Mesh.eNodeB3.sctp "Congestion Window 15:192.168.8.1:sum" 0
scalar MultiCell_X2Mesh.eNodeB3.sctp "Congestion Window 15:192.168.8.1:sumweights" 0
scalar MultiCell_X2Mesh.eNodeB3.sctp "Congestion Window 15:192.168.8.1:mean" -nan
scalar MultiCell_X2Mesh.eNodeB3.sctp "Congestion Window 15:192.168.8.1:stddev" nan
scalar MultiCell_X2Mesh.eNodeB3.sctp "Congestion Window 15:192.168.8.1:min" inf
scalar MultiCell_X2Mesh.eNodeB3.sctp "Congestion Window 15:192.168.8.1:max" -inf
scalar MultiCell_X2Mesh.eNodeB3.sctp "Congestion Window 15:192.168.8.1:starttime" nan
scalar MultiCell_X2Mesh.eNodeB3.sctp "Congestion Window 15:192.168.8.1:endtime" nan
scalar MultiCell_X2Mesh.eNodeB3.sctp "Bandwidth 15:192.168.8.1:count" 0
scalar MultiCell_X2Mesh.eNodeB3.sctp "Bandwidth 15:192.168.8.1:sum" 0
scalar MultiCell_X2Mesh.eNodeB3.sctp "Bandwidth 15:192.168.8.1:sumweights" 0
scalar MultiCell_X2Mesh.eNodeB3.sctp "Bandwidth 15:192.168.8.1:mean" -nan
scalar MultiCell_X2Mesh.eNodeB3.sctp "Bandwidth 15:192.168.8.1:stddev" nan
scalar MultiCell_X2Mesh.eNodeB3.sctp "Bandwidth 15:192.168.8.1:min" inf
scalar MultiCell_X2Mesh.eNodeB3.sctp "Bandwidth 15:192.168.8.1:max" -inf
scalar MultiCell_X2Mesh.eNodeB3.sctp "Bandwidth 15:192.168.8.1:starttime" nan
scalar MultiCell_X2Mesh.eNodeB3.sctp "Bandwidth 15:192.168.8.1:endtime" nan
scalar MultiCell_X2Mesh.eNodeB3.sctp "RTO 15:192.168.8.1:count" 0
scalar MultiCell_X2Mesh.eNodeB3.sctp "RTO 15:192.168.8.1:sum" 0
scalar MultiCell_X2Mesh.eNodeB3.sctp "RTO 15:192.168.8.1:sumweights" 0
scalar MultiCell_X2Mesh.eNodeB3.sctp "RTO 15:192.168.8.1:mean" -nan
scalar MultiCell_X2Mesh.eNodeB3.sctp "RTO 15:192.168.8.1:stddev" nan
scalar MultiCell_X2Mesh.eNodeB3.sctp "RTO 15:192.168.8.1:min" inf
scalar MultiCell_X2Mesh.eNodeB3.sctp "RTO 15:192.168.8.1:max" -inf
scalar MultiCell_X2Mesh.eNodeB3.sctp "RTO 15:192.168.8.1:starttime" nan
scalar MultiCell_X2Mesh.eNodeB3.sctp "RTO 15:192.168.8.1:endtime" nan

