version 3
run Standalone-0-20260712-21:01:44-253973
attr configname Standalone
attr datetime 20260712-21:01:44
attr datetimef 20260712-210144
attr experiment Standalone
attr inifile omnetpp.ini
attr iterationvars ""
attr iterationvarsd ""
attr iterationvarsf ""
attr measurement ""
attr network simu5g.simulations.nr.networks.SingleCell_Standalone
attr processid 253973
attr repetition 0
attr replication #0
attr resultdir results
attr runnumber 0
attr seedset 0
config **.param-recording false
config image-path /home/andras/projects/Simu5G-fork/simu5g-fork/images
config output-scalar-file results/omnetpp.ini-Standalone-#0.sca
config output-scalar-precision 17
config output-vector-file results/omnetpp.ini-Standalone-#0.vec
config output-vector-precision 17
config record-eventlog false
config sim-time-limit 20s
config network simu5g.simulations.nr.networks.SingleCell_Standalone
config sim-time-limit 20s
config *.gnb.mobility.initialX 450m
config *.gnb.mobility.initialY 300m
config *.gnb.cellularNic.hasSdap true
config *.ue[*].cellularNic.hasSdap true
config *.gnb.cellularNic.sdap.drbConfig "[\n    {\"drb\": 0, \"ue\": 2049, \"qfiList\": [1, 2], \"rlcType\": \"UM\"},\n    {\"drb\": 1, \"ue\": 2049, \"qfiList\": [3, 4], \"rlcType\": \"UM\"},\n    {\"drb\": 0, \"ue\": 2050, \"qfiList\": [1, 2], \"rlcType\": \"UM\"},\n    {\"drb\": 1, \"ue\": 2050, \"qfiList\": [3, 4], \"rlcType\": \"UM\"}\n    ]"
config *.gnb.cellularNic.mac.drbQosConfig "[\n    {\"drb\": 0, \"ue\": 2049, \"gbr\": true, \"delayBudget\": 100, \"per\": 1e-2, \"priority\": 2},\n    {\"drb\": 1, \"ue\": 2049, \"gbr\": true, \"delayBudget\": 50,  \"per\": 1e-3, \"priority\": 1},\n    {\"drb\": 0, \"ue\": 2050, \"gbr\": true, \"delayBudget\": 100, \"per\": 1e-2, \"priority\": 2},\n    {\"drb\": 1, \"ue\": 2050, \"gbr\": true, \"delayBudget\": 50,  \"per\": 1e-3, \"priority\": 1}\n    ]"
config *.gnb.cellularNic.mac.schedulingDisciplineDl "\"QOS_PF\""
config *.gnb.cellularNic.mac.schedulingDisciplineUl "\"QOS_PF\""
config *.numUe 2
config *.ue[*].cellularNic.nrPhy.dynamicCellAssociation false
config *.ue[*].servingNodeId 0
config *.ue[*].nrServingNodeId 1
config *.ue[0].mobility.initialX 350m
config *.ue[0].mobility.initialY 400m
config *.ue[1].mobility.initialX 550m
config *.ue[1].mobility.initialY 400m
config *.ue[*].cellularNic.sdap.drbConfig "[\n    {\"drb\": 0, \"qfiList\": [1, 2], \"rlcType\": \"UM\"},\n    {\"drb\": 1, \"qfiList\": [3, 4], \"rlcType\": \"UM\"}\n    ]"
config sim-time-limit 20s
config **.routingRecorder.enabled false
config output-scalar-file results/Standalone/0.sca
config output-vector-file results/Standalone/0.vec
config seed-set 0
config **.vector-recording true
config **.mobility.constraintAreaMaxX 1000m
config **.mobility.constraintAreaMaxY 1000m
config **.mobility.constraintAreaMinX 0m
config **.mobility.constraintAreaMinY 0m
config **.mobility.constraintAreaMinZ 0m
config **.mobility.constraintAreaMaxZ 0m
config **.mobility.initFromDisplayString false
config **.numBands 50
config **.ueTxPower 26dBm
config **.eNodeBTxPower 40dBm
config **.targetBler 0.01
config **.blerShift 5
config *.configurator.config "xmldoc(\"./demo.xml\")"

scalar SingleCell_Standalone.server.lo[0].lo rcvdPkFromHl:count 0
scalar SingleCell_Standalone.server.lo[0].lo rcvdPkFromHl:sum(packetBytes) 0
scalar SingleCell_Standalone.server.lo[0].lo passedUpPk:count 0
scalar SingleCell_Standalone.server.lo[0].lo passedUpPk:sum(packetBytes) 0
scalar SingleCell_Standalone.server.lo[0] packetDropInterfaceDown:count 0
scalar SingleCell_Standalone.server.lo[0] packetDropInterfaceDown:sum(packetBytes) 0
scalar SingleCell_Standalone.server.lo[0] packetDropNoCarrier:count 0
scalar SingleCell_Standalone.server.lo[0] packetDropNoCarrier:sum(packetBytes) 0
scalar SingleCell_Standalone.server.ppp[0].queue queueLength:last 0
scalar SingleCell_Standalone.server.ppp[0].queue queueLength:max 0
scalar SingleCell_Standalone.server.ppp[0].queue queueLength:timeavg 0
scalar SingleCell_Standalone.server.ppp[0].queue queueBitLength:last 0
scalar SingleCell_Standalone.server.ppp[0].queue queueBitLength:max 0
scalar SingleCell_Standalone.server.ppp[0].queue queueBitLength:timeavg 0
scalar SingleCell_Standalone.server.ppp[0].queue outgoingPackets:count 0
scalar SingleCell_Standalone.server.ppp[0].queue outgoingPacketLengths:sum 0
scalar SingleCell_Standalone.server.ppp[0].queue incomingPackets:count 0
scalar SingleCell_Standalone.server.ppp[0].queue incomingPacketLengths:sum 0
scalar SingleCell_Standalone.server.ppp[0].queue droppedPacketsQueueOverflow:count 0
scalar SingleCell_Standalone.server.ppp[0].queue droppedPacketLengthsQueueOverflow:sum 0
scalar SingleCell_Standalone.server.ppp[0].ppp transmissionState:timeavg 0
scalar SingleCell_Standalone.server.ppp[0].ppp rxPkOk:count 0
scalar SingleCell_Standalone.server.ppp[0].ppp rxPkOk:sum(packetBytes) 0
scalar SingleCell_Standalone.server.ppp[0].ppp txPk:count 0
scalar SingleCell_Standalone.server.ppp[0].ppp txPk:sum(packetBytes) 0
scalar SingleCell_Standalone.server.ppp[0].ppp rcvdPkFromHl:count 0
scalar SingleCell_Standalone.server.ppp[0].ppp rcvdPkFromHl:sum(packetBytes) 0
scalar SingleCell_Standalone.server.ppp[0].ppp passedUpPk:count 0
scalar SingleCell_Standalone.server.ppp[0].ppp passedUpPk:sum(packetBytes) 0
scalar SingleCell_Standalone.server.ppp[0].ppp packetDropIncorrectlyReceived:count 0
scalar SingleCell_Standalone.server.ppp[0].ppp packetDropIncorrectlyReceived:sum(packetBytes) 0
scalar SingleCell_Standalone.server.ppp[0].ppp packetDropInterfaceDown:count 0
scalar SingleCell_Standalone.server.ppp[0].ppp packetDropInterfaceDown:sum(packetBytes) 0
scalar SingleCell_Standalone.server.ppp[0] packetDropInterfaceDown:count 0
scalar SingleCell_Standalone.server.ppp[0] packetDropInterfaceDown:sum(packetBytes) 0
scalar SingleCell_Standalone.server.ppp[0] packetDropNoCarrier:count 0
scalar SingleCell_Standalone.server.ppp[0] packetDropNoCarrier:sum(packetBytes) 0
scalar SingleCell_Standalone.server.ipv4.ip packetDropAddressResolutionFailed:count 0
scalar SingleCell_Standalone.server.ipv4.ip packetDropAddressResolutionFailed:sum(packetBytes) 0
scalar SingleCell_Standalone.server.ipv4.ip packetDropHopLimitReached:count 0
scalar SingleCell_Standalone.server.ipv4.ip packetDropHopLimitReached:sum(packetBytes) 0
scalar SingleCell_Standalone.server.ipv4.ip packetDropForwardingDisabled:count 0
scalar SingleCell_Standalone.server.ipv4.ip packetDropForwardingDisabled:sum(packetBytes) 0
scalar SingleCell_Standalone.server.ipv4.ip packetDropNoInterfaceFound:count 0
scalar SingleCell_Standalone.server.ipv4.ip packetDropNoInterfaceFound:sum(packetBytes) 0
scalar SingleCell_Standalone.server.ipv4.ip packetDropNoRouteFound:count 0
scalar SingleCell_Standalone.server.ipv4.ip packetDropNoRouteFound:sum(packetBytes) 0
scalar SingleCell_Standalone.server.ipv4.ip packetDropUndefined:count 0
scalar SingleCell_Standalone.server.ipv4.ip packetDropUndefined:sum(packetBytes) 0
scalar SingleCell_Standalone.server.ipv4.arp arpResolutionFailed:count 0
scalar SingleCell_Standalone.server.ipv4.arp arpResolutionCompleted:count 0
scalar SingleCell_Standalone.server.ipv4.arp arpResolutionInitiated:count 0
scalar SingleCell_Standalone.server.ipv4.arp arpReplySent:count 0
scalar SingleCell_Standalone.server.ipv4.arp arpReplySent:sum(packetBytes) 0
scalar SingleCell_Standalone.server.ipv4.arp arpRequestSent:count 0
scalar SingleCell_Standalone.server.ipv4.arp arpRequestSent:sum(packetBytes) 0
scalar SingleCell_Standalone.server.udp packetReceived:count 0
scalar SingleCell_Standalone.server.udp packetReceived:sum(packetBytes) 0
scalar SingleCell_Standalone.server.udp packetSent:count 0
scalar SingleCell_Standalone.server.udp packetSent:sum(packetBytes) 0
scalar SingleCell_Standalone.server.udp passedUpPk:count 0
scalar SingleCell_Standalone.server.udp droppedPkWrongPort:count 0
scalar SingleCell_Standalone.server.udp droppedPkBadChecksum:count 0
scalar SingleCell_Standalone.router.lo[0].lo rcvdPkFromHl:count 0
scalar SingleCell_Standalone.router.lo[0].lo rcvdPkFromHl:sum(packetBytes) 0
scalar SingleCell_Standalone.router.lo[0].lo passedUpPk:count 0
scalar SingleCell_Standalone.router.lo[0].lo passedUpPk:sum(packetBytes) 0
scalar SingleCell_Standalone.router.lo[0] packetDropInterfaceDown:count 0
scalar SingleCell_Standalone.router.lo[0] packetDropInterfaceDown:sum(packetBytes) 0
scalar SingleCell_Standalone.router.lo[0] packetDropNoCarrier:count 0
scalar SingleCell_Standalone.router.lo[0] packetDropNoCarrier:sum(packetBytes) 0
scalar SingleCell_Standalone.router.ppp[0].queue queueLength:last 0
scalar SingleCell_Standalone.router.ppp[0].queue queueLength:max 0
scalar SingleCell_Standalone.router.ppp[0].queue queueLength:timeavg 0
scalar SingleCell_Standalone.router.ppp[0].queue queueBitLength:last 0
scalar SingleCell_Standalone.router.ppp[0].queue queueBitLength:max 0
scalar SingleCell_Standalone.router.ppp[0].queue queueBitLength:timeavg 0
scalar SingleCell_Standalone.router.ppp[0].queue outgoingPackets:count 0
scalar SingleCell_Standalone.router.ppp[0].queue outgoingPacketLengths:sum 0
scalar SingleCell_Standalone.router.ppp[0].queue incomingPackets:count 0
scalar SingleCell_Standalone.router.ppp[0].queue incomingPacketLengths:sum 0
scalar SingleCell_Standalone.router.ppp[0].queue droppedPacketsQueueOverflow:count 0
scalar SingleCell_Standalone.router.ppp[0].queue droppedPacketLengthsQueueOverflow:sum 0
scalar SingleCell_Standalone.router.ppp[0].ppp transmissionState:timeavg 0
scalar SingleCell_Standalone.router.ppp[0].ppp rxPkOk:count 0
scalar SingleCell_Standalone.router.ppp[0].ppp rxPkOk:sum(packetBytes) 0
scalar SingleCell_Standalone.router.ppp[0].ppp txPk:count 0
scalar SingleCell_Standalone.router.ppp[0].ppp txPk:sum(packetBytes) 0
scalar SingleCell_Standalone.router.ppp[0].ppp rcvdPkFromHl:count 0
scalar SingleCell_Standalone.router.ppp[0].ppp rcvdPkFromHl:sum(packetBytes) 0
scalar SingleCell_Standalone.router.ppp[0].ppp passedUpPk:count 0
scalar SingleCell_Standalone.router.ppp[0].ppp passedUpPk:sum(packetBytes) 0
scalar SingleCell_Standalone.router.ppp[0].ppp packetDropIncorrectlyReceived:count 0
scalar SingleCell_Standalone.router.ppp[0].ppp packetDropIncorrectlyReceived:sum(packetBytes) 0
scalar SingleCell_Standalone.router.ppp[0].ppp packetDropInterfaceDown:count 0
scalar SingleCell_Standalone.router.ppp[0].ppp packetDropInterfaceDown:sum(packetBytes) 0
scalar SingleCell_Standalone.router.ppp[0] packetDropInterfaceDown:count 0
scalar SingleCell_Standalone.router.ppp[0] packetDropInterfaceDown:sum(packetBytes) 0
scalar SingleCell_Standalone.router.ppp[0] packetDropNoCarrier:count 0
scalar SingleCell_Standalone.router.ppp[0] packetDropNoCarrier:sum(packetBytes) 0
scalar SingleCell_Standalone.router.ppp[1].queue queueLength:last 0
scalar SingleCell_Standalone.router.ppp[1].queue queueLength:max 0
scalar SingleCell_Standalone.router.ppp[1].queue queueLength:timeavg 0
scalar SingleCell_Standalone.router.ppp[1].queue queueBitLength:last 0
scalar SingleCell_Standalone.router.ppp[1].queue queueBitLength:max 0
scalar SingleCell_Standalone.router.ppp[1].queue queueBitLength:timeavg 0
scalar SingleCell_Standalone.router.ppp[1].queue outgoingPackets:count 0
scalar SingleCell_Standalone.router.ppp[1].queue outgoingPacketLengths:sum 0
scalar SingleCell_Standalone.router.ppp[1].queue incomingPackets:count 0
scalar SingleCell_Standalone.router.ppp[1].queue incomingPacketLengths:sum 0
scalar SingleCell_Standalone.router.ppp[1].queue droppedPacketsQueueOverflow:count 0
scalar SingleCell_Standalone.router.ppp[1].queue droppedPacketLengthsQueueOverflow:sum 0
scalar SingleCell_Standalone.router.ppp[1].ppp transmissionState:timeavg 0
scalar SingleCell_Standalone.router.ppp[1].ppp rxPkOk:count 0
scalar SingleCell_Standalone.router.ppp[1].ppp rxPkOk:sum(packetBytes) 0
scalar SingleCell_Standalone.router.ppp[1].ppp txPk:count 0
scalar SingleCell_Standalone.router.ppp[1].ppp txPk:sum(packetBytes) 0
scalar SingleCell_Standalone.router.ppp[1].ppp rcvdPkFromHl:count 0
scalar SingleCell_Standalone.router.ppp[1].ppp rcvdPkFromHl:sum(packetBytes) 0
scalar SingleCell_Standalone.router.ppp[1].ppp passedUpPk:count 0
scalar SingleCell_Standalone.router.ppp[1].ppp passedUpPk:sum(packetBytes) 0
scalar SingleCell_Standalone.router.ppp[1].ppp packetDropIncorrectlyReceived:count 0
scalar SingleCell_Standalone.router.ppp[1].ppp packetDropIncorrectlyReceived:sum(packetBytes) 0
scalar SingleCell_Standalone.router.ppp[1].ppp packetDropInterfaceDown:count 0
scalar SingleCell_Standalone.router.ppp[1].ppp packetDropInterfaceDown:sum(packetBytes) 0
scalar SingleCell_Standalone.router.ppp[1] packetDropInterfaceDown:count 0
scalar SingleCell_Standalone.router.ppp[1] packetDropInterfaceDown:sum(packetBytes) 0
scalar SingleCell_Standalone.router.ppp[1] packetDropNoCarrier:count 0
scalar SingleCell_Standalone.router.ppp[1] packetDropNoCarrier:sum(packetBytes) 0
scalar SingleCell_Standalone.router.ipv4.ip packetDropAddressResolutionFailed:count 0
scalar SingleCell_Standalone.router.ipv4.ip packetDropAddressResolutionFailed:sum(packetBytes) 0
scalar SingleCell_Standalone.router.ipv4.ip packetDropHopLimitReached:count 0
scalar SingleCell_Standalone.router.ipv4.ip packetDropHopLimitReached:sum(packetBytes) 0
scalar SingleCell_Standalone.router.ipv4.ip packetDropForwardingDisabled:count 0
scalar SingleCell_Standalone.router.ipv4.ip packetDropForwardingDisabled:sum(packetBytes) 0
scalar SingleCell_Standalone.router.ipv4.ip packetDropNoInterfaceFound:count 0
scalar SingleCell_Standalone.router.ipv4.ip packetDropNoInterfaceFound:sum(packetBytes) 0
scalar SingleCell_Standalone.router.ipv4.ip packetDropNoRouteFound:count 0
scalar SingleCell_Standalone.router.ipv4.ip packetDropNoRouteFound:sum(packetBytes) 0
scalar SingleCell_Standalone.router.ipv4.ip packetDropUndefined:count 0
scalar SingleCell_Standalone.router.ipv4.ip packetDropUndefined:sum(packetBytes) 0
scalar SingleCell_Standalone.router.ipv4.arp arpResolutionFailed:count 0
scalar SingleCell_Standalone.router.ipv4.arp arpResolutionCompleted:count 0
scalar SingleCell_Standalone.router.ipv4.arp arpResolutionInitiated:count 0
scalar SingleCell_Standalone.router.ipv4.arp arpReplySent:count 0
scalar SingleCell_Standalone.router.ipv4.arp arpReplySent:sum(packetBytes) 0
scalar SingleCell_Standalone.router.ipv4.arp arpRequestSent:count 0
scalar SingleCell_Standalone.router.ipv4.arp arpRequestSent:sum(packetBytes) 0
scalar SingleCell_Standalone.upf.lo[0].lo rcvdPkFromHl:count 0
scalar SingleCell_Standalone.upf.lo[0].lo rcvdPkFromHl:sum(packetBytes) 0
scalar SingleCell_Standalone.upf.lo[0].lo passedUpPk:count 0
scalar SingleCell_Standalone.upf.lo[0].lo passedUpPk:sum(packetBytes) 0
scalar SingleCell_Standalone.upf.lo[0] packetDropInterfaceDown:count 0
scalar SingleCell_Standalone.upf.lo[0] packetDropInterfaceDown:sum(packetBytes) 0
scalar SingleCell_Standalone.upf.lo[0] packetDropNoCarrier:count 0
scalar SingleCell_Standalone.upf.lo[0] packetDropNoCarrier:sum(packetBytes) 0
scalar SingleCell_Standalone.upf.ppp[0].queue queueLength:last 0
scalar SingleCell_Standalone.upf.ppp[0].queue queueLength:max 0
scalar SingleCell_Standalone.upf.ppp[0].queue queueLength:timeavg 0
scalar SingleCell_Standalone.upf.ppp[0].queue queueBitLength:last 0
scalar SingleCell_Standalone.upf.ppp[0].queue queueBitLength:max 0
scalar SingleCell_Standalone.upf.ppp[0].queue queueBitLength:timeavg 0
scalar SingleCell_Standalone.upf.ppp[0].queue outgoingPackets:count 0
scalar SingleCell_Standalone.upf.ppp[0].queue outgoingPacketLengths:sum 0
scalar SingleCell_Standalone.upf.ppp[0].queue incomingPackets:count 0
scalar SingleCell_Standalone.upf.ppp[0].queue incomingPacketLengths:sum 0
scalar SingleCell_Standalone.upf.ppp[0].queue droppedPacketsQueueOverflow:count 0
scalar SingleCell_Standalone.upf.ppp[0].queue droppedPacketLengthsQueueOverflow:sum 0
scalar SingleCell_Standalone.upf.ppp[0].ppp transmissionState:timeavg 0
scalar SingleCell_Standalone.upf.ppp[0].ppp rxPkOk:count 0
scalar SingleCell_Standalone.upf.ppp[0].ppp rxPkOk:sum(packetBytes) 0
scalar SingleCell_Standalone.upf.ppp[0].ppp txPk:count 0
scalar SingleCell_Standalone.upf.ppp[0].ppp txPk:sum(packetBytes) 0
scalar SingleCell_Standalone.upf.ppp[0].ppp rcvdPkFromHl:count 0
scalar SingleCell_Standalone.upf.ppp[0].ppp rcvdPkFromHl:sum(packetBytes) 0
scalar SingleCell_Standalone.upf.ppp[0].ppp passedUpPk:count 0
scalar SingleCell_Standalone.upf.ppp[0].ppp passedUpPk:sum(packetBytes) 0
scalar SingleCell_Standalone.upf.ppp[0].ppp packetDropIncorrectlyReceived:count 0
scalar SingleCell_Standalone.upf.ppp[0].ppp packetDropIncorrectlyReceived:sum(packetBytes) 0
scalar SingleCell_Standalone.upf.ppp[0].ppp packetDropInterfaceDown:count 0
scalar SingleCell_Standalone.upf.ppp[0].ppp packetDropInterfaceDown:sum(packetBytes) 0
scalar SingleCell_Standalone.upf.ppp[0] packetDropInterfaceDown:count 0
scalar SingleCell_Standalone.upf.ppp[0] packetDropInterfaceDown:sum(packetBytes) 0
scalar SingleCell_Standalone.upf.ppp[0] packetDropNoCarrier:count 0
scalar SingleCell_Standalone.upf.ppp[0] packetDropNoCarrier:sum(packetBytes) 0
scalar SingleCell_Standalone.upf.ipv4.ip packetDropAddressResolutionFailed:count 0
scalar SingleCell_Standalone.upf.ipv4.ip packetDropAddressResolutionFailed:sum(packetBytes) 0
scalar SingleCell_Standalone.upf.ipv4.ip packetDropHopLimitReached:count 0
scalar SingleCell_Standalone.upf.ipv4.ip packetDropHopLimitReached:sum(packetBytes) 0
scalar SingleCell_Standalone.upf.ipv4.ip packetDropForwardingDisabled:count 0
scalar SingleCell_Standalone.upf.ipv4.ip packetDropForwardingDisabled:sum(packetBytes) 0
scalar SingleCell_Standalone.upf.ipv4.ip packetDropNoInterfaceFound:count 0
scalar SingleCell_Standalone.upf.ipv4.ip packetDropNoInterfaceFound:sum(packetBytes) 0
scalar SingleCell_Standalone.upf.ipv4.ip packetDropNoRouteFound:count 0
scalar SingleCell_Standalone.upf.ipv4.ip packetDropNoRouteFound:sum(packetBytes) 0
scalar SingleCell_Standalone.upf.ipv4.ip packetDropUndefined:count 0
scalar SingleCell_Standalone.upf.ipv4.ip packetDropUndefined:sum(packetBytes) 0
scalar SingleCell_Standalone.upf.ipv4.arp arpResolutionFailed:count 0
scalar SingleCell_Standalone.upf.ipv4.arp arpResolutionCompleted:count 0
scalar SingleCell_Standalone.upf.ipv4.arp arpResolutionInitiated:count 0
scalar SingleCell_Standalone.upf.ipv4.arp arpReplySent:count 0
scalar SingleCell_Standalone.upf.ipv4.arp arpReplySent:sum(packetBytes) 0
scalar SingleCell_Standalone.upf.ipv4.arp arpRequestSent:count 0
scalar SingleCell_Standalone.upf.ipv4.arp arpRequestSent:sum(packetBytes) 0
scalar SingleCell_Standalone.upf.udp packetReceived:count 0
scalar SingleCell_Standalone.upf.udp packetReceived:sum(packetBytes) 0
scalar SingleCell_Standalone.upf.udp packetSent:count 0
scalar SingleCell_Standalone.upf.udp packetSent:sum(packetBytes) 0
scalar SingleCell_Standalone.upf.udp passedUpPk:count 0
scalar SingleCell_Standalone.upf.udp droppedPkWrongPort:count 0
scalar SingleCell_Standalone.upf.udp droppedPkBadChecksum:count 0
scalar SingleCell_Standalone.upf.dnPpp.queue queueLength:last 0
scalar SingleCell_Standalone.upf.dnPpp.queue queueLength:max 0
scalar SingleCell_Standalone.upf.dnPpp.queue queueLength:timeavg 0
scalar SingleCell_Standalone.upf.dnPpp.queue queueBitLength:last 0
scalar SingleCell_Standalone.upf.dnPpp.queue queueBitLength:max 0
scalar SingleCell_Standalone.upf.dnPpp.queue queueBitLength:timeavg 0
scalar SingleCell_Standalone.upf.dnPpp.queue outgoingPackets:count 0
scalar SingleCell_Standalone.upf.dnPpp.queue outgoingPacketLengths:sum 0
scalar SingleCell_Standalone.upf.dnPpp.queue incomingPackets:count 0
scalar SingleCell_Standalone.upf.dnPpp.queue incomingPacketLengths:sum 0
scalar SingleCell_Standalone.upf.dnPpp.queue droppedPacketsQueueOverflow:count 0
scalar SingleCell_Standalone.upf.dnPpp.queue droppedPacketLengthsQueueOverflow:sum 0
scalar SingleCell_Standalone.upf.dnPpp.ppp transmissionState:timeavg 0
scalar SingleCell_Standalone.upf.dnPpp.ppp rxPkOk:count 0
scalar SingleCell_Standalone.upf.dnPpp.ppp rxPkOk:sum(packetBytes) 0
scalar SingleCell_Standalone.upf.dnPpp.ppp txPk:count 0
scalar SingleCell_Standalone.upf.dnPpp.ppp txPk:sum(packetBytes) 0
scalar SingleCell_Standalone.upf.dnPpp.ppp rcvdPkFromHl:count 0
scalar SingleCell_Standalone.upf.dnPpp.ppp rcvdPkFromHl:sum(packetBytes) 0
scalar SingleCell_Standalone.upf.dnPpp.ppp passedUpPk:count 0
scalar SingleCell_Standalone.upf.dnPpp.ppp passedUpPk:sum(packetBytes) 0
scalar SingleCell_Standalone.upf.dnPpp.ppp packetDropIncorrectlyReceived:count 0
scalar SingleCell_Standalone.upf.dnPpp.ppp packetDropIncorrectlyReceived:sum(packetBytes) 0
scalar SingleCell_Standalone.upf.dnPpp.ppp packetDropInterfaceDown:count 0
scalar SingleCell_Standalone.upf.dnPpp.ppp packetDropInterfaceDown:sum(packetBytes) 0
scalar SingleCell_Standalone.upf.dnPpp packetDropInterfaceDown:count 0
scalar SingleCell_Standalone.upf.dnPpp packetDropInterfaceDown:sum(packetBytes) 0
scalar SingleCell_Standalone.upf.dnPpp packetDropNoCarrier:count 0
scalar SingleCell_Standalone.upf.dnPpp packetDropNoCarrier:sum(packetBytes) 0
scalar SingleCell_Standalone.iUpf.lo[0].lo rcvdPkFromHl:count 0
scalar SingleCell_Standalone.iUpf.lo[0].lo rcvdPkFromHl:sum(packetBytes) 0
scalar SingleCell_Standalone.iUpf.lo[0].lo passedUpPk:count 0
scalar SingleCell_Standalone.iUpf.lo[0].lo passedUpPk:sum(packetBytes) 0
scalar SingleCell_Standalone.iUpf.lo[0] packetDropInterfaceDown:count 0
scalar SingleCell_Standalone.iUpf.lo[0] packetDropInterfaceDown:sum(packetBytes) 0
scalar SingleCell_Standalone.iUpf.lo[0] packetDropNoCarrier:count 0
scalar SingleCell_Standalone.iUpf.lo[0] packetDropNoCarrier:sum(packetBytes) 0
scalar SingleCell_Standalone.iUpf.ppp[0].queue queueLength:last 0
scalar SingleCell_Standalone.iUpf.ppp[0].queue queueLength:max 0
scalar SingleCell_Standalone.iUpf.ppp[0].queue queueLength:timeavg 0
scalar SingleCell_Standalone.iUpf.ppp[0].queue queueBitLength:last 0
scalar SingleCell_Standalone.iUpf.ppp[0].queue queueBitLength:max 0
scalar SingleCell_Standalone.iUpf.ppp[0].queue queueBitLength:timeavg 0
scalar SingleCell_Standalone.iUpf.ppp[0].queue outgoingPackets:count 0
scalar SingleCell_Standalone.iUpf.ppp[0].queue outgoingPacketLengths:sum 0
scalar SingleCell_Standalone.iUpf.ppp[0].queue incomingPackets:count 0
scalar SingleCell_Standalone.iUpf.ppp[0].queue incomingPacketLengths:sum 0
scalar SingleCell_Standalone.iUpf.ppp[0].queue droppedPacketsQueueOverflow:count 0
scalar SingleCell_Standalone.iUpf.ppp[0].queue droppedPacketLengthsQueueOverflow:sum 0
scalar SingleCell_Standalone.iUpf.ppp[0].ppp transmissionState:timeavg 0
scalar SingleCell_Standalone.iUpf.ppp[0].ppp rxPkOk:count 0
scalar SingleCell_Standalone.iUpf.ppp[0].ppp rxPkOk:sum(packetBytes) 0
scalar SingleCell_Standalone.iUpf.ppp[0].ppp txPk:count 0
scalar SingleCell_Standalone.iUpf.ppp[0].ppp txPk:sum(packetBytes) 0
scalar SingleCell_Standalone.iUpf.ppp[0].ppp rcvdPkFromHl:count 0
scalar SingleCell_Standalone.iUpf.ppp[0].ppp rcvdPkFromHl:sum(packetBytes) 0
scalar SingleCell_Standalone.iUpf.ppp[0].ppp passedUpPk:count 0
scalar SingleCell_Standalone.iUpf.ppp[0].ppp passedUpPk:sum(packetBytes) 0
scalar SingleCell_Standalone.iUpf.ppp[0].ppp packetDropIncorrectlyReceived:count 0
scalar SingleCell_Standalone.iUpf.ppp[0].ppp packetDropIncorrectlyReceived:sum(packetBytes) 0
scalar SingleCell_Standalone.iUpf.ppp[0].ppp packetDropInterfaceDown:count 0
scalar SingleCell_Standalone.iUpf.ppp[0].ppp packetDropInterfaceDown:sum(packetBytes) 0
scalar SingleCell_Standalone.iUpf.ppp[0] packetDropInterfaceDown:count 0
scalar SingleCell_Standalone.iUpf.ppp[0] packetDropInterfaceDown:sum(packetBytes) 0
scalar SingleCell_Standalone.iUpf.ppp[0] packetDropNoCarrier:count 0
scalar SingleCell_Standalone.iUpf.ppp[0] packetDropNoCarrier:sum(packetBytes) 0
scalar SingleCell_Standalone.iUpf.ppp[1].queue queueLength:last 0
scalar SingleCell_Standalone.iUpf.ppp[1].queue queueLength:max 0
scalar SingleCell_Standalone.iUpf.ppp[1].queue queueLength:timeavg 0
scalar SingleCell_Standalone.iUpf.ppp[1].queue queueBitLength:last 0
scalar SingleCell_Standalone.iUpf.ppp[1].queue queueBitLength:max 0
scalar SingleCell_Standalone.iUpf.ppp[1].queue queueBitLength:timeavg 0
scalar SingleCell_Standalone.iUpf.ppp[1].queue outgoingPackets:count 0
scalar SingleCell_Standalone.iUpf.ppp[1].queue outgoingPacketLengths:sum 0
scalar SingleCell_Standalone.iUpf.ppp[1].queue incomingPackets:count 0
scalar SingleCell_Standalone.iUpf.ppp[1].queue incomingPacketLengths:sum 0
scalar SingleCell_Standalone.iUpf.ppp[1].queue droppedPacketsQueueOverflow:count 0
scalar SingleCell_Standalone.iUpf.ppp[1].queue droppedPacketLengthsQueueOverflow:sum 0
scalar SingleCell_Standalone.iUpf.ppp[1].ppp transmissionState:timeavg 0
scalar SingleCell_Standalone.iUpf.ppp[1].ppp rxPkOk:count 0
scalar SingleCell_Standalone.iUpf.ppp[1].ppp rxPkOk:sum(packetBytes) 0
scalar SingleCell_Standalone.iUpf.ppp[1].ppp txPk:count 0
scalar SingleCell_Standalone.iUpf.ppp[1].ppp txPk:sum(packetBytes) 0
scalar SingleCell_Standalone.iUpf.ppp[1].ppp rcvdPkFromHl:count 0
scalar SingleCell_Standalone.iUpf.ppp[1].ppp rcvdPkFromHl:sum(packetBytes) 0
scalar SingleCell_Standalone.iUpf.ppp[1].ppp passedUpPk:count 0
scalar SingleCell_Standalone.iUpf.ppp[1].ppp passedUpPk:sum(packetBytes) 0
scalar SingleCell_Standalone.iUpf.ppp[1].ppp packetDropIncorrectlyReceived:count 0
scalar SingleCell_Standalone.iUpf.ppp[1].ppp packetDropIncorrectlyReceived:sum(packetBytes) 0
scalar SingleCell_Standalone.iUpf.ppp[1].ppp packetDropInterfaceDown:count 0
scalar SingleCell_Standalone.iUpf.ppp[1].ppp packetDropInterfaceDown:sum(packetBytes) 0
scalar SingleCell_Standalone.iUpf.ppp[1] packetDropInterfaceDown:count 0
scalar SingleCell_Standalone.iUpf.ppp[1] packetDropInterfaceDown:sum(packetBytes) 0
scalar SingleCell_Standalone.iUpf.ppp[1] packetDropNoCarrier:count 0
scalar SingleCell_Standalone.iUpf.ppp[1] packetDropNoCarrier:sum(packetBytes) 0
scalar SingleCell_Standalone.iUpf.ipv4.ip packetDropAddressResolutionFailed:count 0
scalar SingleCell_Standalone.iUpf.ipv4.ip packetDropAddressResolutionFailed:sum(packetBytes) 0
scalar SingleCell_Standalone.iUpf.ipv4.ip packetDropHopLimitReached:count 0
scalar SingleCell_Standalone.iUpf.ipv4.ip packetDropHopLimitReached:sum(packetBytes) 0
scalar SingleCell_Standalone.iUpf.ipv4.ip packetDropForwardingDisabled:count 0
scalar SingleCell_Standalone.iUpf.ipv4.ip packetDropForwardingDisabled:sum(packetBytes) 0
scalar SingleCell_Standalone.iUpf.ipv4.ip packetDropNoInterfaceFound:count 0
scalar SingleCell_Standalone.iUpf.ipv4.ip packetDropNoInterfaceFound:sum(packetBytes) 0
scalar SingleCell_Standalone.iUpf.ipv4.ip packetDropNoRouteFound:count 0
scalar SingleCell_Standalone.iUpf.ipv4.ip packetDropNoRouteFound:sum(packetBytes) 0
scalar SingleCell_Standalone.iUpf.ipv4.ip packetDropUndefined:count 0
scalar SingleCell_Standalone.iUpf.ipv4.ip packetDropUndefined:sum(packetBytes) 0
scalar SingleCell_Standalone.iUpf.ipv4.arp arpResolutionFailed:count 0
scalar SingleCell_Standalone.iUpf.ipv4.arp arpResolutionCompleted:count 0
scalar SingleCell_Standalone.iUpf.ipv4.arp arpResolutionInitiated:count 0
scalar SingleCell_Standalone.iUpf.ipv4.arp arpReplySent:count 0
scalar SingleCell_Standalone.iUpf.ipv4.arp arpReplySent:sum(packetBytes) 0
scalar SingleCell_Standalone.iUpf.ipv4.arp arpRequestSent:count 0
scalar SingleCell_Standalone.iUpf.ipv4.arp arpRequestSent:sum(packetBytes) 0
scalar SingleCell_Standalone.iUpf.udp packetReceived:count 0
scalar SingleCell_Standalone.iUpf.udp packetReceived:sum(packetBytes) 0
scalar SingleCell_Standalone.iUpf.udp packetSent:count 0
scalar SingleCell_Standalone.iUpf.udp packetSent:sum(packetBytes) 0
scalar SingleCell_Standalone.iUpf.udp passedUpPk:count 0
scalar SingleCell_Standalone.iUpf.udp droppedPkWrongPort:count 0
scalar SingleCell_Standalone.iUpf.udp droppedPkBadChecksum:count 0
scalar SingleCell_Standalone.iUpf.dnPpp.queue queueLength:last 0
scalar SingleCell_Standalone.iUpf.dnPpp.queue queueLength:max 0
scalar SingleCell_Standalone.iUpf.dnPpp.queue queueLength:timeavg 0
scalar SingleCell_Standalone.iUpf.dnPpp.queue queueBitLength:last 0
scalar SingleCell_Standalone.iUpf.dnPpp.queue queueBitLength:max 0
scalar SingleCell_Standalone.iUpf.dnPpp.queue queueBitLength:timeavg 0
scalar SingleCell_Standalone.iUpf.dnPpp.queue outgoingPackets:count 0
scalar SingleCell_Standalone.iUpf.dnPpp.queue outgoingPacketLengths:sum 0
scalar SingleCell_Standalone.iUpf.dnPpp.queue incomingPackets:count 0
scalar SingleCell_Standalone.iUpf.dnPpp.queue incomingPacketLengths:sum 0
scalar SingleCell_Standalone.iUpf.dnPpp.queue droppedPacketsQueueOverflow:count 0
scalar SingleCell_Standalone.iUpf.dnPpp.queue droppedPacketLengthsQueueOverflow:sum 0
scalar SingleCell_Standalone.iUpf.dnPpp.ppp transmissionState:timeavg 0
scalar SingleCell_Standalone.iUpf.dnPpp.ppp rxPkOk:count 0
scalar SingleCell_Standalone.iUpf.dnPpp.ppp rxPkOk:sum(packetBytes) 0
scalar SingleCell_Standalone.iUpf.dnPpp.ppp txPk:count 0
scalar SingleCell_Standalone.iUpf.dnPpp.ppp txPk:sum(packetBytes) 0
scalar SingleCell_Standalone.iUpf.dnPpp.ppp rcvdPkFromHl:count 0
scalar SingleCell_Standalone.iUpf.dnPpp.ppp rcvdPkFromHl:sum(packetBytes) 0
scalar SingleCell_Standalone.iUpf.dnPpp.ppp passedUpPk:count 0
scalar SingleCell_Standalone.iUpf.dnPpp.ppp passedUpPk:sum(packetBytes) 0
scalar SingleCell_Standalone.iUpf.dnPpp.ppp packetDropIncorrectlyReceived:count 0
scalar SingleCell_Standalone.iUpf.dnPpp.ppp packetDropIncorrectlyReceived:sum(packetBytes) 0
scalar SingleCell_Standalone.iUpf.dnPpp.ppp packetDropInterfaceDown:count 0
scalar SingleCell_Standalone.iUpf.dnPpp.ppp packetDropInterfaceDown:sum(packetBytes) 0
scalar SingleCell_Standalone.iUpf.dnPpp packetDropInterfaceDown:count 0
scalar SingleCell_Standalone.iUpf.dnPpp packetDropInterfaceDown:sum(packetBytes) 0
scalar SingleCell_Standalone.iUpf.dnPpp packetDropNoCarrier:count 0
scalar SingleCell_Standalone.iUpf.dnPpp packetDropNoCarrier:sum(packetBytes) 0
scalar SingleCell_Standalone.gnb.cellularNic.rlcMux rlcCellThroughputD2D:simu5g_rateavg -nan
scalar SingleCell_Standalone.gnb.cellularNic.rlcMux rlcPduThroughputD2D:simu5g_rateavg -nan
scalar SingleCell_Standalone.gnb.cellularNic.rlcMux rlcPduDelayD2D:mean -nan
scalar SingleCell_Standalone.gnb.cellularNic.rlcMux rlcThroughputD2D:simu5g_rateavg -nan
scalar SingleCell_Standalone.gnb.cellularNic.rlcMux rlcDelayD2D:mean -nan
scalar SingleCell_Standalone.gnb.cellularNic.rlcMux rlcCellThroughputUl:simu5g_rateavg -nan
scalar SingleCell_Standalone.gnb.cellularNic.rlcMux rlcCellThroughputDl:simu5g_rateavg -nan
scalar SingleCell_Standalone.gnb.cellularNic.rlcMux rlcPduThroughputUl:simu5g_rateavg -nan
scalar SingleCell_Standalone.gnb.cellularNic.rlcMux rlcPduThroughputDl:simu5g_rateavg -nan
scalar SingleCell_Standalone.gnb.cellularNic.rlcMux rlcPduDelayUl:mean -nan
scalar SingleCell_Standalone.gnb.cellularNic.rlcMux rlcPduDelayDl:mean -nan
scalar SingleCell_Standalone.gnb.cellularNic.rlcMux rlcThroughputUl:simu5g_rateavg -nan
scalar SingleCell_Standalone.gnb.cellularNic.rlcMux rlcThroughputDl:simu5g_rateavg -nan
scalar SingleCell_Standalone.gnb.cellularNic.rlcMux rlcDelayUl:mean -nan
scalar SingleCell_Standalone.gnb.cellularNic.rlcMux rlcDelayDl:mean -nan
scalar SingleCell_Standalone.gnb.cellularNic.rlcMux sentPacketToLowerLayer:count 0
scalar SingleCell_Standalone.gnb.cellularNic.rlcMux sentPacketToLowerLayer:sum(packetBytes) 0
scalar SingleCell_Standalone.gnb.cellularNic.rlcMux receivedPacketFromLowerLayer:count 0
scalar SingleCell_Standalone.gnb.cellularNic.rlcMux receivedPacketFromLowerLayer:sum(packetBytes) 0
scalar SingleCell_Standalone.gnb.cellularNic.mac avgServedBlocksUl:mean 0
scalar SingleCell_Standalone.gnb.cellularNic.mac avgServedBlocksDl:mean 0
scalar SingleCell_Standalone.gnb.cellularNic.mac macCellPacketLossD2D:mean -nan
scalar SingleCell_Standalone.gnb.cellularNic.mac macCellThroughputD2D:simu5g_rateavg -nan
scalar SingleCell_Standalone.gnb.cellularNic.mac harqTxAttemptsUl:mean -nan
scalar SingleCell_Standalone.gnb.cellularNic.mac harqTxAttemptsDl:mean -nan
scalar SingleCell_Standalone.gnb.cellularNic.mac harqErrorRate_4th_Ul:mean -nan
scalar SingleCell_Standalone.gnb.cellularNic.mac harqErrorRate_4th_Dl:mean -nan
scalar SingleCell_Standalone.gnb.cellularNic.mac harqErrorRate_3rd_Ul:mean -nan
scalar SingleCell_Standalone.gnb.cellularNic.mac harqErrorRate_3rd_Dl:mean -nan
scalar SingleCell_Standalone.gnb.cellularNic.mac harqErrorRate_2nd_Ul:mean -nan
scalar SingleCell_Standalone.gnb.cellularNic.mac harqErrorRate_2nd_Dl:mean -nan
scalar SingleCell_Standalone.gnb.cellularNic.mac harqErrorRate_1st_Ul:mean -nan
scalar SingleCell_Standalone.gnb.cellularNic.mac harqErrorRate_1st_Dl:mean -nan
scalar SingleCell_Standalone.gnb.cellularNic.mac harqErrorRateUl:mean -nan
scalar SingleCell_Standalone.gnb.cellularNic.mac harqErrorRateDl:mean -nan
scalar SingleCell_Standalone.gnb.cellularNic.mac macCellPacketLossUl:mean -nan
scalar SingleCell_Standalone.gnb.cellularNic.mac macCellPacketLossDl:mean -nan
scalar SingleCell_Standalone.gnb.cellularNic.mac macPacketLossUl:mean -nan
scalar SingleCell_Standalone.gnb.cellularNic.mac macPacketLossDl:mean -nan
scalar SingleCell_Standalone.gnb.cellularNic.mac macThroughputUl:simu5g_rateavg -nan
scalar SingleCell_Standalone.gnb.cellularNic.mac macThroughputDl:simu5g_rateavg -nan
scalar SingleCell_Standalone.gnb.cellularNic.mac macDelayUl:mean -nan
scalar SingleCell_Standalone.gnb.cellularNic.mac macDelayDl:mean -nan
scalar SingleCell_Standalone.gnb.cellularNic.mac macCellThroughputUl:simu5g_rateavg -nan
scalar SingleCell_Standalone.gnb.cellularNic.mac macCellThroughputDl:simu5g_rateavg -nan
scalar SingleCell_Standalone.gnb.cellularNic.mac sentPacketToLowerLayer:count 0
scalar SingleCell_Standalone.gnb.cellularNic.mac sentPacketToLowerLayer:sum(packetBytes) 0
scalar SingleCell_Standalone.gnb.cellularNic.mac sentPacketToUpperLayer:count 0
scalar SingleCell_Standalone.gnb.cellularNic.mac sentPacketToUpperLayer:sum(packetBytes) 0
scalar SingleCell_Standalone.gnb.cellularNic.mac receivedPacketFromLowerLayer:count 6668
scalar SingleCell_Standalone.gnb.cellularNic.mac receivedPacketFromLowerLayer:sum(packetBytes) 6668
scalar SingleCell_Standalone.gnb.cellularNic.mac receivedPacketFromUpperLayer:count 0
scalar SingleCell_Standalone.gnb.cellularNic.mac receivedPacketFromUpperLayer:sum(packetBytes) 0
scalar SingleCell_Standalone.gnb.cellularNic.mac macBufferOverFlowD2D:mean -nan
scalar SingleCell_Standalone.gnb.cellularNic.mac macBufferOverFlowUl:mean -nan
scalar SingleCell_Standalone.gnb.cellularNic.mac macBufferOverFlowDl:mean -nan
scalar SingleCell_Standalone.gnb.cellularNic.channelModel[0] measuredSinrUl:mean -nan
scalar SingleCell_Standalone.gnb.cellularNic.channelModel[0] measuredSinrDl:mean -nan
scalar SingleCell_Standalone.gnb.cellularNic.channelModel[0] rcvdSinrD2D:mean -nan
scalar SingleCell_Standalone.gnb.cellularNic.channelModel[0] rcvdSinrUl:mean -nan
scalar SingleCell_Standalone.gnb.cellularNic.channelModel[0] rcvdSinrDl:mean -nan
scalar SingleCell_Standalone.gnb.cellularNic packetDropInterfaceDown:count 0
scalar SingleCell_Standalone.gnb.cellularNic packetDropInterfaceDown:sum(packetBytes) 0
scalar SingleCell_Standalone.gnb.cellularNic packetDropNoCarrier:count 0
scalar SingleCell_Standalone.gnb.cellularNic packetDropNoCarrier:sum(packetBytes) 0
scalar SingleCell_Standalone.gnb.pppIf.queue queueLength:last 0
scalar SingleCell_Standalone.gnb.pppIf.queue queueLength:max 0
scalar SingleCell_Standalone.gnb.pppIf.queue queueLength:timeavg 0
scalar SingleCell_Standalone.gnb.pppIf.queue queueBitLength:last 0
scalar SingleCell_Standalone.gnb.pppIf.queue queueBitLength:max 0
scalar SingleCell_Standalone.gnb.pppIf.queue queueBitLength:timeavg 0
scalar SingleCell_Standalone.gnb.pppIf.queue outgoingPackets:count 0
scalar SingleCell_Standalone.gnb.pppIf.queue outgoingPacketLengths:sum 0
scalar SingleCell_Standalone.gnb.pppIf.queue incomingPackets:count 0
scalar SingleCell_Standalone.gnb.pppIf.queue incomingPacketLengths:sum 0
scalar SingleCell_Standalone.gnb.pppIf.queue droppedPacketsQueueOverflow:count 0
scalar SingleCell_Standalone.gnb.pppIf.queue droppedPacketLengthsQueueOverflow:sum 0
scalar SingleCell_Standalone.gnb.pppIf.ppp transmissionState:timeavg 0
scalar SingleCell_Standalone.gnb.pppIf.ppp rxPkOk:count 0
scalar SingleCell_Standalone.gnb.pppIf.ppp rxPkOk:sum(packetBytes) 0
scalar SingleCell_Standalone.gnb.pppIf.ppp txPk:count 0
scalar SingleCell_Standalone.gnb.pppIf.ppp txPk:sum(packetBytes) 0
scalar SingleCell_Standalone.gnb.pppIf.ppp rcvdPkFromHl:count 0
scalar SingleCell_Standalone.gnb.pppIf.ppp rcvdPkFromHl:sum(packetBytes) 0
scalar SingleCell_Standalone.gnb.pppIf.ppp passedUpPk:count 0
scalar SingleCell_Standalone.gnb.pppIf.ppp passedUpPk:sum(packetBytes) 0
scalar SingleCell_Standalone.gnb.pppIf.ppp packetDropIncorrectlyReceived:count 0
scalar SingleCell_Standalone.gnb.pppIf.ppp packetDropIncorrectlyReceived:sum(packetBytes) 0
scalar SingleCell_Standalone.gnb.pppIf.ppp packetDropInterfaceDown:count 0
scalar SingleCell_Standalone.gnb.pppIf.ppp packetDropInterfaceDown:sum(packetBytes) 0
scalar SingleCell_Standalone.gnb.pppIf packetDropInterfaceDown:count 0
scalar SingleCell_Standalone.gnb.pppIf packetDropInterfaceDown:sum(packetBytes) 0
scalar SingleCell_Standalone.gnb.pppIf packetDropNoCarrier:count 0
scalar SingleCell_Standalone.gnb.pppIf packetDropNoCarrier:sum(packetBytes) 0
scalar SingleCell_Standalone.gnb.pppMEHostIf.queue queueLength:last 0
scalar SingleCell_Standalone.gnb.pppMEHostIf.queue queueLength:max 0
scalar SingleCell_Standalone.gnb.pppMEHostIf.queue queueLength:timeavg 0
scalar SingleCell_Standalone.gnb.pppMEHostIf.queue queueBitLength:last 0
scalar SingleCell_Standalone.gnb.pppMEHostIf.queue queueBitLength:max 0
scalar SingleCell_Standalone.gnb.pppMEHostIf.queue queueBitLength:timeavg 0
scalar SingleCell_Standalone.gnb.pppMEHostIf.queue outgoingPackets:count 0
scalar SingleCell_Standalone.gnb.pppMEHostIf.queue outgoingPacketLengths:sum 0
scalar SingleCell_Standalone.gnb.pppMEHostIf.queue incomingPackets:count 0
scalar SingleCell_Standalone.gnb.pppMEHostIf.queue incomingPacketLengths:sum 0
scalar SingleCell_Standalone.gnb.pppMEHostIf.queue droppedPacketsQueueOverflow:count 0
scalar SingleCell_Standalone.gnb.pppMEHostIf.queue droppedPacketLengthsQueueOverflow:sum 0
scalar SingleCell_Standalone.gnb.pppMEHostIf.ppp transmissionState:timeavg 0
scalar SingleCell_Standalone.gnb.pppMEHostIf.ppp rxPkOk:count 0
scalar SingleCell_Standalone.gnb.pppMEHostIf.ppp rxPkOk:sum(packetBytes) 0
scalar SingleCell_Standalone.gnb.pppMEHostIf.ppp txPk:count 0
scalar SingleCell_Standalone.gnb.pppMEHostIf.ppp txPk:sum(packetBytes) 0
scalar SingleCell_Standalone.gnb.pppMEHostIf.ppp rcvdPkFromHl:count 0
scalar SingleCell_Standalone.gnb.pppMEHostIf.ppp rcvdPkFromHl:sum(packetBytes) 0
scalar SingleCell_Standalone.gnb.pppMEHostIf.ppp passedUpPk:count 0
scalar SingleCell_Standalone.gnb.pppMEHostIf.ppp passedUpPk:sum(packetBytes) 0
scalar SingleCell_Standalone.gnb.pppMEHostIf.ppp packetDropIncorrectlyReceived:count 0
scalar SingleCell_Standalone.gnb.pppMEHostIf.ppp packetDropIncorrectlyReceived:sum(packetBytes) 0
scalar SingleCell_Standalone.gnb.pppMEHostIf.ppp packetDropInterfaceDown:count 0
scalar SingleCell_Standalone.gnb.pppMEHostIf.ppp packetDropInterfaceDown:sum(packetBytes) 0
scalar SingleCell_Standalone.gnb.pppMEHostIf packetDropInterfaceDown:count 0
scalar SingleCell_Standalone.gnb.pppMEHostIf packetDropInterfaceDown:sum(packetBytes) 0
scalar SingleCell_Standalone.gnb.pppMEHostIf packetDropNoCarrier:count 0
scalar SingleCell_Standalone.gnb.pppMEHostIf packetDropNoCarrier:sum(packetBytes) 0
scalar SingleCell_Standalone.gnb.ipv4.ip packetDropAddressResolutionFailed:count 0
scalar SingleCell_Standalone.gnb.ipv4.ip packetDropAddressResolutionFailed:sum(packetBytes) 0
scalar SingleCell_Standalone.gnb.ipv4.ip packetDropHopLimitReached:count 0
scalar SingleCell_Standalone.gnb.ipv4.ip packetDropHopLimitReached:sum(packetBytes) 0
scalar SingleCell_Standalone.gnb.ipv4.ip packetDropForwardingDisabled:count 0
scalar SingleCell_Standalone.gnb.ipv4.ip packetDropForwardingDisabled:sum(packetBytes) 0
scalar SingleCell_Standalone.gnb.ipv4.ip packetDropNoInterfaceFound:count 0
scalar SingleCell_Standalone.gnb.ipv4.ip packetDropNoInterfaceFound:sum(packetBytes) 0
scalar SingleCell_Standalone.gnb.ipv4.ip packetDropNoRouteFound:count 0
scalar SingleCell_Standalone.gnb.ipv4.ip packetDropNoRouteFound:sum(packetBytes) 0
scalar SingleCell_Standalone.gnb.ipv4.ip packetDropUndefined:count 0
scalar SingleCell_Standalone.gnb.ipv4.ip packetDropUndefined:sum(packetBytes) 0
scalar SingleCell_Standalone.gnb.ipv4.arp arpResolutionFailed:count 0
scalar SingleCell_Standalone.gnb.ipv4.arp arpResolutionCompleted:count 0
scalar SingleCell_Standalone.gnb.ipv4.arp arpResolutionInitiated:count 0
scalar SingleCell_Standalone.gnb.ipv4.arp arpReplySent:count 0
scalar SingleCell_Standalone.gnb.ipv4.arp arpReplySent:sum(packetBytes) 0
scalar SingleCell_Standalone.gnb.ipv4.arp arpRequestSent:count 0
scalar SingleCell_Standalone.gnb.ipv4.arp arpRequestSent:sum(packetBytes) 0
scalar SingleCell_Standalone.gnb.udp packetReceived:count 0
scalar SingleCell_Standalone.gnb.udp packetReceived:sum(packetBytes) 0
scalar SingleCell_Standalone.gnb.udp packetSent:count 0
scalar SingleCell_Standalone.gnb.udp packetSent:sum(packetBytes) 0
scalar SingleCell_Standalone.gnb.udp passedUpPk:count 0
scalar SingleCell_Standalone.gnb.udp droppedPkWrongPort:count 0
scalar SingleCell_Standalone.gnb.udp droppedPkBadChecksum:count 0
scalar SingleCell_Standalone.ue[0].lo[0].lo rcvdPkFromHl:count 0
scalar SingleCell_Standalone.ue[0].lo[0].lo rcvdPkFromHl:sum(packetBytes) 0
scalar SingleCell_Standalone.ue[0].lo[0].lo passedUpPk:count 0
scalar SingleCell_Standalone.ue[0].lo[0].lo passedUpPk:sum(packetBytes) 0
scalar SingleCell_Standalone.ue[0].lo[0] packetDropInterfaceDown:count 0
scalar SingleCell_Standalone.ue[0].lo[0] packetDropInterfaceDown:sum(packetBytes) 0
scalar SingleCell_Standalone.ue[0].lo[0] packetDropNoCarrier:count 0
scalar SingleCell_Standalone.ue[0].lo[0] packetDropNoCarrier:sum(packetBytes) 0
scalar SingleCell_Standalone.ue[0].cellularNic.rlcMux rlcCellThroughputD2D:simu5g_rateavg -nan
scalar SingleCell_Standalone.ue[0].cellularNic.rlcMux rlcPduThroughputD2D:simu5g_rateavg -nan
scalar SingleCell_Standalone.ue[0].cellularNic.rlcMux rlcPduDelayD2D:mean -nan
scalar SingleCell_Standalone.ue[0].cellularNic.rlcMux rlcThroughputD2D:simu5g_rateavg -nan
scalar SingleCell_Standalone.ue[0].cellularNic.rlcMux rlcDelayD2D:mean -nan
scalar SingleCell_Standalone.ue[0].cellularNic.rlcMux rlcCellThroughputUl:simu5g_rateavg -nan
scalar SingleCell_Standalone.ue[0].cellularNic.rlcMux rlcCellThroughputDl:simu5g_rateavg -nan
scalar SingleCell_Standalone.ue[0].cellularNic.rlcMux rlcPduThroughputUl:simu5g_rateavg -nan
scalar SingleCell_Standalone.ue[0].cellularNic.rlcMux rlcPduThroughputDl:simu5g_rateavg -nan
scalar SingleCell_Standalone.ue[0].cellularNic.rlcMux rlcPduDelayUl:mean -nan
scalar SingleCell_Standalone.ue[0].cellularNic.rlcMux rlcPduDelayDl:mean -nan
scalar SingleCell_Standalone.ue[0].cellularNic.rlcMux rlcThroughputUl:simu5g_rateavg -nan
scalar SingleCell_Standalone.ue[0].cellularNic.rlcMux rlcThroughputDl:simu5g_rateavg -nan
scalar SingleCell_Standalone.ue[0].cellularNic.rlcMux rlcDelayUl:mean -nan
scalar SingleCell_Standalone.ue[0].cellularNic.rlcMux rlcDelayDl:mean -nan
scalar SingleCell_Standalone.ue[0].cellularNic.rlcMux sentPacketToLowerLayer:count 0
scalar SingleCell_Standalone.ue[0].cellularNic.rlcMux sentPacketToLowerLayer:sum(packetBytes) 0
scalar SingleCell_Standalone.ue[0].cellularNic.rlcMux receivedPacketFromLowerLayer:count 0
scalar SingleCell_Standalone.ue[0].cellularNic.rlcMux receivedPacketFromLowerLayer:sum(packetBytes) 0
scalar SingleCell_Standalone.ue[0].cellularNic.mac harqErrorRate_4th_D2D:mean -nan
scalar SingleCell_Standalone.ue[0].cellularNic.mac harqErrorRate_3rd_D2D:mean -nan
scalar SingleCell_Standalone.ue[0].cellularNic.mac harqErrorRate_2nd_D2D:mean -nan
scalar SingleCell_Standalone.ue[0].cellularNic.mac harqErrorRate_1st_D2D:mean -nan
scalar SingleCell_Standalone.ue[0].cellularNic.mac harqErrorRateD2D:mean -nan
scalar SingleCell_Standalone.ue[0].cellularNic.mac macPacketLossD2D:mean -nan
scalar SingleCell_Standalone.ue[0].cellularNic.mac macDelayD2D:mean -nan
scalar SingleCell_Standalone.ue[0].cellularNic.mac macThroughputD2D:simu5g_rateavg -nan
scalar SingleCell_Standalone.ue[0].cellularNic.mac harqTxAttemptsUl:mean -nan
scalar SingleCell_Standalone.ue[0].cellularNic.mac harqTxAttemptsDl:mean -nan
scalar SingleCell_Standalone.ue[0].cellularNic.mac harqErrorRate_4th_Ul:mean -nan
scalar SingleCell_Standalone.ue[0].cellularNic.mac harqErrorRate_4th_Dl:mean -nan
scalar SingleCell_Standalone.ue[0].cellularNic.mac harqErrorRate_3rd_Ul:mean -nan
scalar SingleCell_Standalone.ue[0].cellularNic.mac harqErrorRate_3rd_Dl:mean -nan
scalar SingleCell_Standalone.ue[0].cellularNic.mac harqErrorRate_2nd_Ul:mean -nan
scalar SingleCell_Standalone.ue[0].cellularNic.mac harqErrorRate_2nd_Dl:mean -nan
scalar SingleCell_Standalone.ue[0].cellularNic.mac harqErrorRate_1st_Ul:mean -nan
scalar SingleCell_Standalone.ue[0].cellularNic.mac harqErrorRate_1st_Dl:mean -nan
scalar SingleCell_Standalone.ue[0].cellularNic.mac harqErrorRateUl:mean -nan
scalar SingleCell_Standalone.ue[0].cellularNic.mac harqErrorRateDl:mean -nan
scalar SingleCell_Standalone.ue[0].cellularNic.mac macCellPacketLossUl:mean -nan
scalar SingleCell_Standalone.ue[0].cellularNic.mac macCellPacketLossDl:mean -nan
scalar SingleCell_Standalone.ue[0].cellularNic.mac macPacketLossUl:mean -nan
scalar SingleCell_Standalone.ue[0].cellularNic.mac macPacketLossDl:mean -nan
scalar SingleCell_Standalone.ue[0].cellularNic.mac macThroughputUl:simu5g_rateavg -nan
scalar SingleCell_Standalone.ue[0].cellularNic.mac macThroughputDl:simu5g_rateavg -nan
scalar SingleCell_Standalone.ue[0].cellularNic.mac macDelayUl:mean -nan
scalar SingleCell_Standalone.ue[0].cellularNic.mac macDelayDl:mean -nan
scalar SingleCell_Standalone.ue[0].cellularNic.mac macCellThroughputUl:simu5g_rateavg -nan
scalar SingleCell_Standalone.ue[0].cellularNic.mac macCellThroughputDl:simu5g_rateavg -nan
scalar SingleCell_Standalone.ue[0].cellularNic.mac rcvdD2DModeSwitchNotification:count 0
scalar SingleCell_Standalone.ue[0].cellularNic.mac sentPacketToLowerLayer:count 0
scalar SingleCell_Standalone.ue[0].cellularNic.mac sentPacketToLowerLayer:sum(packetBytes) 0
scalar SingleCell_Standalone.ue[0].cellularNic.mac sentPacketToUpperLayer:count 0
scalar SingleCell_Standalone.ue[0].cellularNic.mac sentPacketToUpperLayer:sum(packetBytes) 0
scalar SingleCell_Standalone.ue[0].cellularNic.mac receivedPacketFromLowerLayer:count 0
scalar SingleCell_Standalone.ue[0].cellularNic.mac receivedPacketFromLowerLayer:sum(packetBytes) 0
scalar SingleCell_Standalone.ue[0].cellularNic.mac receivedPacketFromUpperLayer:count 0
scalar SingleCell_Standalone.ue[0].cellularNic.mac receivedPacketFromUpperLayer:sum(packetBytes) 0
scalar SingleCell_Standalone.ue[0].cellularNic.mac macBufferOverFlowD2D:mean -nan
scalar SingleCell_Standalone.ue[0].cellularNic.mac macBufferOverFlowUl:mean -nan
scalar SingleCell_Standalone.ue[0].cellularNic.mac macBufferOverFlowDl:mean -nan
scalar SingleCell_Standalone.ue[0].cellularNic.phy distance:mean -nan
scalar SingleCell_Standalone.ue[0].cellularNic.phy averageCqiD2D:mean -nan
scalar SingleCell_Standalone.ue[0].cellularNic.phy averageCqiUl:mean -nan
scalar SingleCell_Standalone.ue[0].cellularNic.phy averageCqiUl:count 0
scalar SingleCell_Standalone.ue[0].cellularNic.phy averageCqiDl:mean -nan
scalar SingleCell_Standalone.ue[0].cellularNic.phy averageCqiDl:count 0
scalar SingleCell_Standalone.ue[0].cellularNic.channelModel[0] measuredSinrUl:mean -nan
scalar SingleCell_Standalone.ue[0].cellularNic.channelModel[0] measuredSinrDl:mean -nan
scalar SingleCell_Standalone.ue[0].cellularNic.channelModel[0] rcvdSinrD2D:mean -nan
scalar SingleCell_Standalone.ue[0].cellularNic.channelModel[0] rcvdSinrUl:mean -nan
scalar SingleCell_Standalone.ue[0].cellularNic.channelModel[0] rcvdSinrDl:mean -nan
scalar SingleCell_Standalone.ue[0].cellularNic.nrRlcMux rlcCellThroughputD2D:simu5g_rateavg -nan
scalar SingleCell_Standalone.ue[0].cellularNic.nrRlcMux rlcPduThroughputD2D:simu5g_rateavg -nan
scalar SingleCell_Standalone.ue[0].cellularNic.nrRlcMux rlcPduDelayD2D:mean -nan
scalar SingleCell_Standalone.ue[0].cellularNic.nrRlcMux rlcThroughputD2D:simu5g_rateavg -nan
scalar SingleCell_Standalone.ue[0].cellularNic.nrRlcMux rlcDelayD2D:mean -nan
scalar SingleCell_Standalone.ue[0].cellularNic.nrRlcMux rlcCellThroughputUl:simu5g_rateavg -nan
scalar SingleCell_Standalone.ue[0].cellularNic.nrRlcMux rlcCellThroughputDl:simu5g_rateavg -nan
scalar SingleCell_Standalone.ue[0].cellularNic.nrRlcMux rlcPduThroughputUl:simu5g_rateavg -nan
scalar SingleCell_Standalone.ue[0].cellularNic.nrRlcMux rlcPduThroughputDl:simu5g_rateavg -nan
scalar SingleCell_Standalone.ue[0].cellularNic.nrRlcMux rlcPduDelayUl:mean -nan
scalar SingleCell_Standalone.ue[0].cellularNic.nrRlcMux rlcPduDelayDl:mean -nan
scalar SingleCell_Standalone.ue[0].cellularNic.nrRlcMux rlcThroughputUl:simu5g_rateavg -nan
scalar SingleCell_Standalone.ue[0].cellularNic.nrRlcMux rlcThroughputDl:simu5g_rateavg -nan
scalar SingleCell_Standalone.ue[0].cellularNic.nrRlcMux rlcDelayUl:mean -nan
scalar SingleCell_Standalone.ue[0].cellularNic.nrRlcMux rlcDelayDl:mean -nan
scalar SingleCell_Standalone.ue[0].cellularNic.nrRlcMux sentPacketToLowerLayer:count 0
scalar SingleCell_Standalone.ue[0].cellularNic.nrRlcMux sentPacketToLowerLayer:sum(packetBytes) 0
scalar SingleCell_Standalone.ue[0].cellularNic.nrRlcMux receivedPacketFromLowerLayer:count 0
scalar SingleCell_Standalone.ue[0].cellularNic.nrRlcMux receivedPacketFromLowerLayer:sum(packetBytes) 0
scalar SingleCell_Standalone.ue[0].cellularNic.nrMac harqErrorRate_4th_D2D:mean -nan
scalar SingleCell_Standalone.ue[0].cellularNic.nrMac harqErrorRate_3rd_D2D:mean -nan
scalar SingleCell_Standalone.ue[0].cellularNic.nrMac harqErrorRate_2nd_D2D:mean -nan
scalar SingleCell_Standalone.ue[0].cellularNic.nrMac harqErrorRate_1st_D2D:mean -nan
scalar SingleCell_Standalone.ue[0].cellularNic.nrMac harqErrorRateD2D:mean -nan
scalar SingleCell_Standalone.ue[0].cellularNic.nrMac macPacketLossD2D:mean -nan
scalar SingleCell_Standalone.ue[0].cellularNic.nrMac macDelayD2D:mean -nan
scalar SingleCell_Standalone.ue[0].cellularNic.nrMac macThroughputD2D:simu5g_rateavg -nan
scalar SingleCell_Standalone.ue[0].cellularNic.nrMac harqTxAttemptsUl:mean -nan
scalar SingleCell_Standalone.ue[0].cellularNic.nrMac harqTxAttemptsDl:mean -nan
scalar SingleCell_Standalone.ue[0].cellularNic.nrMac harqErrorRate_4th_Ul:mean -nan
scalar SingleCell_Standalone.ue[0].cellularNic.nrMac harqErrorRate_4th_Dl:mean -nan
scalar SingleCell_Standalone.ue[0].cellularNic.nrMac harqErrorRate_3rd_Ul:mean -nan
scalar SingleCell_Standalone.ue[0].cellularNic.nrMac harqErrorRate_3rd_Dl:mean -nan
scalar SingleCell_Standalone.ue[0].cellularNic.nrMac harqErrorRate_2nd_Ul:mean -nan
scalar SingleCell_Standalone.ue[0].cellularNic.nrMac harqErrorRate_2nd_Dl:mean -nan
scalar SingleCell_Standalone.ue[0].cellularNic.nrMac harqErrorRate_1st_Ul:mean -nan
scalar SingleCell_Standalone.ue[0].cellularNic.nrMac harqErrorRate_1st_Dl:mean -nan
scalar SingleCell_Standalone.ue[0].cellularNic.nrMac harqErrorRateUl:mean -nan
scalar SingleCell_Standalone.ue[0].cellularNic.nrMac harqErrorRateDl:mean -nan
scalar SingleCell_Standalone.ue[0].cellularNic.nrMac macCellPacketLossUl:mean -nan
scalar SingleCell_Standalone.ue[0].cellularNic.nrMac macCellPacketLossDl:mean -nan
scalar SingleCell_Standalone.ue[0].cellularNic.nrMac macPacketLossUl:mean -nan
scalar SingleCell_Standalone.ue[0].cellularNic.nrMac macPacketLossDl:mean -nan
scalar SingleCell_Standalone.ue[0].cellularNic.nrMac macThroughputUl:simu5g_rateavg -nan
scalar SingleCell_Standalone.ue[0].cellularNic.nrMac macThroughputDl:simu5g_rateavg -nan
scalar SingleCell_Standalone.ue[0].cellularNic.nrMac macDelayUl:mean -nan
scalar SingleCell_Standalone.ue[0].cellularNic.nrMac macDelayDl:mean -nan
scalar SingleCell_Standalone.ue[0].cellularNic.nrMac macCellThroughputUl:simu5g_rateavg -nan
scalar SingleCell_Standalone.ue[0].cellularNic.nrMac macCellThroughputDl:simu5g_rateavg -nan
scalar SingleCell_Standalone.ue[0].cellularNic.nrMac rcvdD2DModeSwitchNotification:count 0
scalar SingleCell_Standalone.ue[0].cellularNic.nrMac sentPacketToLowerLayer:count 0
scalar SingleCell_Standalone.ue[0].cellularNic.nrMac sentPacketToLowerLayer:sum(packetBytes) 0
scalar SingleCell_Standalone.ue[0].cellularNic.nrMac sentPacketToUpperLayer:count 0
scalar SingleCell_Standalone.ue[0].cellularNic.nrMac sentPacketToUpperLayer:sum(packetBytes) 0
scalar SingleCell_Standalone.ue[0].cellularNic.nrMac receivedPacketFromLowerLayer:count 0
scalar SingleCell_Standalone.ue[0].cellularNic.nrMac receivedPacketFromLowerLayer:sum(packetBytes) 0
scalar SingleCell_Standalone.ue[0].cellularNic.nrMac receivedPacketFromUpperLayer:count 0
scalar SingleCell_Standalone.ue[0].cellularNic.nrMac receivedPacketFromUpperLayer:sum(packetBytes) 0
scalar SingleCell_Standalone.ue[0].cellularNic.nrMac macBufferOverFlowD2D:mean -nan
scalar SingleCell_Standalone.ue[0].cellularNic.nrMac macBufferOverFlowUl:mean -nan
scalar SingleCell_Standalone.ue[0].cellularNic.nrMac macBufferOverFlowDl:mean -nan
scalar SingleCell_Standalone.ue[0].cellularNic.nrPhy distance:mean -nan
scalar SingleCell_Standalone.ue[0].cellularNic.nrPhy averageCqiD2D:mean -nan
scalar SingleCell_Standalone.ue[0].cellularNic.nrPhy averageCqiUl:mean -nan
scalar SingleCell_Standalone.ue[0].cellularNic.nrPhy averageCqiUl:count 0
scalar SingleCell_Standalone.ue[0].cellularNic.nrPhy averageCqiDl:mean -nan
scalar SingleCell_Standalone.ue[0].cellularNic.nrPhy averageCqiDl:count 0
scalar SingleCell_Standalone.ue[0].cellularNic.nrChannelModel[0] measuredSinrUl:mean 32.42111754368274
scalar SingleCell_Standalone.ue[0].cellularNic.nrChannelModel[0] measuredSinrDl:mean 56.508056236701158
scalar SingleCell_Standalone.ue[0].cellularNic.nrChannelModel[0] rcvdSinrD2D:mean -nan
scalar SingleCell_Standalone.ue[0].cellularNic.nrChannelModel[0] rcvdSinrUl:mean -nan
scalar SingleCell_Standalone.ue[0].cellularNic.nrChannelModel[0] rcvdSinrDl:mean -nan
scalar SingleCell_Standalone.ue[0].cellularNic packetDropInterfaceDown:count 0
scalar SingleCell_Standalone.ue[0].cellularNic packetDropInterfaceDown:sum(packetBytes) 0
scalar SingleCell_Standalone.ue[0].cellularNic packetDropNoCarrier:count 0
scalar SingleCell_Standalone.ue[0].cellularNic packetDropNoCarrier:sum(packetBytes) 0
scalar SingleCell_Standalone.ue[0].encap pauseSent:count 0
scalar SingleCell_Standalone.ue[0].encap pauseSent:sum 0
scalar SingleCell_Standalone.ue[0].encap decapPk:count 0
scalar SingleCell_Standalone.ue[0].encap decapPk:sum(packetBytes) 0
scalar SingleCell_Standalone.ue[0].encap encapPk:count 0
scalar SingleCell_Standalone.ue[0].encap encapPk:sum(packetBytes) 0
scalar SingleCell_Standalone.ue[0].ipv4.ip packetDropAddressResolutionFailed:count 0
scalar SingleCell_Standalone.ue[0].ipv4.ip packetDropAddressResolutionFailed:sum(packetBytes) 0
scalar SingleCell_Standalone.ue[0].ipv4.ip packetDropHopLimitReached:count 0
scalar SingleCell_Standalone.ue[0].ipv4.ip packetDropHopLimitReached:sum(packetBytes) 0
scalar SingleCell_Standalone.ue[0].ipv4.ip packetDropForwardingDisabled:count 0
scalar SingleCell_Standalone.ue[0].ipv4.ip packetDropForwardingDisabled:sum(packetBytes) 0
scalar SingleCell_Standalone.ue[0].ipv4.ip packetDropNoInterfaceFound:count 0
scalar SingleCell_Standalone.ue[0].ipv4.ip packetDropNoInterfaceFound:sum(packetBytes) 0
scalar SingleCell_Standalone.ue[0].ipv4.ip packetDropNoRouteFound:count 0
scalar SingleCell_Standalone.ue[0].ipv4.ip packetDropNoRouteFound:sum(packetBytes) 0
scalar SingleCell_Standalone.ue[0].ipv4.ip packetDropUndefined:count 0
scalar SingleCell_Standalone.ue[0].ipv4.ip packetDropUndefined:sum(packetBytes) 0
scalar SingleCell_Standalone.ue[0].ipv4.arp arpResolutionFailed:count 0
scalar SingleCell_Standalone.ue[0].ipv4.arp arpResolutionCompleted:count 0
scalar SingleCell_Standalone.ue[0].ipv4.arp arpResolutionInitiated:count 0
scalar SingleCell_Standalone.ue[0].ipv4.arp arpReplySent:count 0
scalar SingleCell_Standalone.ue[0].ipv4.arp arpReplySent:sum(packetBytes) 0
scalar SingleCell_Standalone.ue[0].ipv4.arp arpRequestSent:count 0
scalar SingleCell_Standalone.ue[0].ipv4.arp arpRequestSent:sum(packetBytes) 0
scalar SingleCell_Standalone.ue[0].udp packetReceived:count 0
scalar SingleCell_Standalone.ue[0].udp packetReceived:sum(packetBytes) 0
scalar SingleCell_Standalone.ue[0].udp packetSent:count 0
scalar SingleCell_Standalone.ue[0].udp packetSent:sum(packetBytes) 0
scalar SingleCell_Standalone.ue[0].udp passedUpPk:count 0
scalar SingleCell_Standalone.ue[0].udp droppedPkWrongPort:count 0
scalar SingleCell_Standalone.ue[0].udp droppedPkBadChecksum:count 0
scalar SingleCell_Standalone.ue[1].lo[0].lo rcvdPkFromHl:count 0
scalar SingleCell_Standalone.ue[1].lo[0].lo rcvdPkFromHl:sum(packetBytes) 0
scalar SingleCell_Standalone.ue[1].lo[0].lo passedUpPk:count 0
scalar SingleCell_Standalone.ue[1].lo[0].lo passedUpPk:sum(packetBytes) 0
scalar SingleCell_Standalone.ue[1].lo[0] packetDropInterfaceDown:count 0
scalar SingleCell_Standalone.ue[1].lo[0] packetDropInterfaceDown:sum(packetBytes) 0
scalar SingleCell_Standalone.ue[1].lo[0] packetDropNoCarrier:count 0
scalar SingleCell_Standalone.ue[1].lo[0] packetDropNoCarrier:sum(packetBytes) 0
scalar SingleCell_Standalone.ue[1].cellularNic.rlcMux rlcCellThroughputD2D:simu5g_rateavg -nan
scalar SingleCell_Standalone.ue[1].cellularNic.rlcMux rlcPduThroughputD2D:simu5g_rateavg -nan
scalar SingleCell_Standalone.ue[1].cellularNic.rlcMux rlcPduDelayD2D:mean -nan
scalar SingleCell_Standalone.ue[1].cellularNic.rlcMux rlcThroughputD2D:simu5g_rateavg -nan
scalar SingleCell_Standalone.ue[1].cellularNic.rlcMux rlcDelayD2D:mean -nan
scalar SingleCell_Standalone.ue[1].cellularNic.rlcMux rlcCellThroughputUl:simu5g_rateavg -nan
scalar SingleCell_Standalone.ue[1].cellularNic.rlcMux rlcCellThroughputDl:simu5g_rateavg -nan
scalar SingleCell_Standalone.ue[1].cellularNic.rlcMux rlcPduThroughputUl:simu5g_rateavg -nan
scalar SingleCell_Standalone.ue[1].cellularNic.rlcMux rlcPduThroughputDl:simu5g_rateavg -nan
scalar SingleCell_Standalone.ue[1].cellularNic.rlcMux rlcPduDelayUl:mean -nan
scalar SingleCell_Standalone.ue[1].cellularNic.rlcMux rlcPduDelayDl:mean -nan
scalar SingleCell_Standalone.ue[1].cellularNic.rlcMux rlcThroughputUl:simu5g_rateavg -nan
scalar SingleCell_Standalone.ue[1].cellularNic.rlcMux rlcThroughputDl:simu5g_rateavg -nan
scalar SingleCell_Standalone.ue[1].cellularNic.rlcMux rlcDelayUl:mean -nan
scalar SingleCell_Standalone.ue[1].cellularNic.rlcMux rlcDelayDl:mean -nan
scalar SingleCell_Standalone.ue[1].cellularNic.rlcMux sentPacketToLowerLayer:count 0
scalar SingleCell_Standalone.ue[1].cellularNic.rlcMux sentPacketToLowerLayer:sum(packetBytes) 0
scalar SingleCell_Standalone.ue[1].cellularNic.rlcMux receivedPacketFromLowerLayer:count 0
scalar SingleCell_Standalone.ue[1].cellularNic.rlcMux receivedPacketFromLowerLayer:sum(packetBytes) 0
scalar SingleCell_Standalone.ue[1].cellularNic.mac harqErrorRate_4th_D2D:mean -nan
scalar SingleCell_Standalone.ue[1].cellularNic.mac harqErrorRate_3rd_D2D:mean -nan
scalar SingleCell_Standalone.ue[1].cellularNic.mac harqErrorRate_2nd_D2D:mean -nan
scalar SingleCell_Standalone.ue[1].cellularNic.mac harqErrorRate_1st_D2D:mean -nan
scalar SingleCell_Standalone.ue[1].cellularNic.mac harqErrorRateD2D:mean -nan
scalar SingleCell_Standalone.ue[1].cellularNic.mac macPacketLossD2D:mean -nan
scalar SingleCell_Standalone.ue[1].cellularNic.mac macDelayD2D:mean -nan
scalar SingleCell_Standalone.ue[1].cellularNic.mac macThroughputD2D:simu5g_rateavg -nan
scalar SingleCell_Standalone.ue[1].cellularNic.mac harqTxAttemptsUl:mean -nan
scalar SingleCell_Standalone.ue[1].cellularNic.mac harqTxAttemptsDl:mean -nan
scalar SingleCell_Standalone.ue[1].cellularNic.mac harqErrorRate_4th_Ul:mean -nan
scalar SingleCell_Standalone.ue[1].cellularNic.mac harqErrorRate_4th_Dl:mean -nan
scalar SingleCell_Standalone.ue[1].cellularNic.mac harqErrorRate_3rd_Ul:mean -nan
scalar SingleCell_Standalone.ue[1].cellularNic.mac harqErrorRate_3rd_Dl:mean -nan
scalar SingleCell_Standalone.ue[1].cellularNic.mac harqErrorRate_2nd_Ul:mean -nan
scalar SingleCell_Standalone.ue[1].cellularNic.mac harqErrorRate_2nd_Dl:mean -nan
scalar SingleCell_Standalone.ue[1].cellularNic.mac harqErrorRate_1st_Ul:mean -nan
scalar SingleCell_Standalone.ue[1].cellularNic.mac harqErrorRate_1st_Dl:mean -nan
scalar SingleCell_Standalone.ue[1].cellularNic.mac harqErrorRateUl:mean -nan
scalar SingleCell_Standalone.ue[1].cellularNic.mac harqErrorRateDl:mean -nan
scalar SingleCell_Standalone.ue[1].cellularNic.mac macCellPacketLossUl:mean -nan
scalar SingleCell_Standalone.ue[1].cellularNic.mac macCellPacketLossDl:mean -nan
scalar SingleCell_Standalone.ue[1].cellularNic.mac macPacketLossUl:mean -nan
scalar SingleCell_Standalone.ue[1].cellularNic.mac macPacketLossDl:mean -nan
scalar SingleCell_Standalone.ue[1].cellularNic.mac macThroughputUl:simu5g_rateavg -nan
scalar SingleCell_Standalone.ue[1].cellularNic.mac macThroughputDl:simu5g_rateavg -nan
scalar SingleCell_Standalone.ue[1].cellularNic.mac macDelayUl:mean -nan
scalar SingleCell_Standalone.ue[1].cellularNic.mac macDelayDl:mean -nan
scalar SingleCell_Standalone.ue[1].cellularNic.mac macCellThroughputUl:simu5g_rateavg -nan
scalar SingleCell_Standalone.ue[1].cellularNic.mac macCellThroughputDl:simu5g_rateavg -nan
scalar SingleCell_Standalone.ue[1].cellularNic.mac rcvdD2DModeSwitchNotification:count 0
scalar SingleCell_Standalone.ue[1].cellularNic.mac sentPacketToLowerLayer:count 0
scalar SingleCell_Standalone.ue[1].cellularNic.mac sentPacketToLowerLayer:sum(packetBytes) 0
scalar SingleCell_Standalone.ue[1].cellularNic.mac sentPacketToUpperLayer:count 0
scalar SingleCell_Standalone.ue[1].cellularNic.mac sentPacketToUpperLayer:sum(packetBytes) 0
scalar SingleCell_Standalone.ue[1].cellularNic.mac receivedPacketFromLowerLayer:count 0
scalar SingleCell_Standalone.ue[1].cellularNic.mac receivedPacketFromLowerLayer:sum(packetBytes) 0
scalar SingleCell_Standalone.ue[1].cellularNic.mac receivedPacketFromUpperLayer:count 0
scalar SingleCell_Standalone.ue[1].cellularNic.mac receivedPacketFromUpperLayer:sum(packetBytes) 0
scalar SingleCell_Standalone.ue[1].cellularNic.mac macBufferOverFlowD2D:mean -nan
scalar SingleCell_Standalone.ue[1].cellularNic.mac macBufferOverFlowUl:mean -nan
scalar SingleCell_Standalone.ue[1].cellularNic.mac macBufferOverFlowDl:mean -nan
scalar SingleCell_Standalone.ue[1].cellularNic.phy distance:mean -nan
scalar SingleCell_Standalone.ue[1].cellularNic.phy averageCqiD2D:mean -nan
scalar SingleCell_Standalone.ue[1].cellularNic.phy averageCqiUl:mean -nan
scalar SingleCell_Standalone.ue[1].cellularNic.phy averageCqiUl:count 0
scalar SingleCell_Standalone.ue[1].cellularNic.phy averageCqiDl:mean -nan
scalar SingleCell_Standalone.ue[1].cellularNic.phy averageCqiDl:count 0
scalar SingleCell_Standalone.ue[1].cellularNic.channelModel[0] measuredSinrUl:mean -nan
scalar SingleCell_Standalone.ue[1].cellularNic.channelModel[0] measuredSinrDl:mean -nan
scalar SingleCell_Standalone.ue[1].cellularNic.channelModel[0] rcvdSinrD2D:mean -nan
scalar SingleCell_Standalone.ue[1].cellularNic.channelModel[0] rcvdSinrUl:mean -nan
scalar SingleCell_Standalone.ue[1].cellularNic.channelModel[0] rcvdSinrDl:mean -nan
scalar SingleCell_Standalone.ue[1].cellularNic.nrRlcMux rlcCellThroughputD2D:simu5g_rateavg -nan
scalar SingleCell_Standalone.ue[1].cellularNic.nrRlcMux rlcPduThroughputD2D:simu5g_rateavg -nan
scalar SingleCell_Standalone.ue[1].cellularNic.nrRlcMux rlcPduDelayD2D:mean -nan
scalar SingleCell_Standalone.ue[1].cellularNic.nrRlcMux rlcThroughputD2D:simu5g_rateavg -nan
scalar SingleCell_Standalone.ue[1].cellularNic.nrRlcMux rlcDelayD2D:mean -nan
scalar SingleCell_Standalone.ue[1].cellularNic.nrRlcMux rlcCellThroughputUl:simu5g_rateavg -nan
scalar SingleCell_Standalone.ue[1].cellularNic.nrRlcMux rlcCellThroughputDl:simu5g_rateavg -nan
scalar SingleCell_Standalone.ue[1].cellularNic.nrRlcMux rlcPduThroughputUl:simu5g_rateavg -nan
scalar SingleCell_Standalone.ue[1].cellularNic.nrRlcMux rlcPduThroughputDl:simu5g_rateavg -nan
scalar SingleCell_Standalone.ue[1].cellularNic.nrRlcMux rlcPduDelayUl:mean -nan
scalar SingleCell_Standalone.ue[1].cellularNic.nrRlcMux rlcPduDelayDl:mean -nan
scalar SingleCell_Standalone.ue[1].cellularNic.nrRlcMux rlcThroughputUl:simu5g_rateavg -nan
scalar SingleCell_Standalone.ue[1].cellularNic.nrRlcMux rlcThroughputDl:simu5g_rateavg -nan
scalar SingleCell_Standalone.ue[1].cellularNic.nrRlcMux rlcDelayUl:mean -nan
scalar SingleCell_Standalone.ue[1].cellularNic.nrRlcMux rlcDelayDl:mean -nan
scalar SingleCell_Standalone.ue[1].cellularNic.nrRlcMux sentPacketToLowerLayer:count 0
scalar SingleCell_Standalone.ue[1].cellularNic.nrRlcMux sentPacketToLowerLayer:sum(packetBytes) 0
scalar SingleCell_Standalone.ue[1].cellularNic.nrRlcMux receivedPacketFromLowerLayer:count 0
scalar SingleCell_Standalone.ue[1].cellularNic.nrRlcMux receivedPacketFromLowerLayer:sum(packetBytes) 0
scalar SingleCell_Standalone.ue[1].cellularNic.nrMac harqErrorRate_4th_D2D:mean -nan
scalar SingleCell_Standalone.ue[1].cellularNic.nrMac harqErrorRate_3rd_D2D:mean -nan
scalar SingleCell_Standalone.ue[1].cellularNic.nrMac harqErrorRate_2nd_D2D:mean -nan
scalar SingleCell_Standalone.ue[1].cellularNic.nrMac harqErrorRate_1st_D2D:mean -nan
scalar SingleCell_Standalone.ue[1].cellularNic.nrMac harqErrorRateD2D:mean -nan
scalar SingleCell_Standalone.ue[1].cellularNic.nrMac macPacketLossD2D:mean -nan
scalar SingleCell_Standalone.ue[1].cellularNic.nrMac macDelayD2D:mean -nan
scalar SingleCell_Standalone.ue[1].cellularNic.nrMac macThroughputD2D:simu5g_rateavg -nan
scalar SingleCell_Standalone.ue[1].cellularNic.nrMac harqTxAttemptsUl:mean -nan
scalar SingleCell_Standalone.ue[1].cellularNic.nrMac harqTxAttemptsDl:mean -nan
scalar SingleCell_Standalone.ue[1].cellularNic.nrMac harqErrorRate_4th_Ul:mean -nan
scalar SingleCell_Standalone.ue[1].cellularNic.nrMac harqErrorRate_4th_Dl:mean -nan
scalar SingleCell_Standalone.ue[1].cellularNic.nrMac harqErrorRate_3rd_Ul:mean -nan
scalar SingleCell_Standalone.ue[1].cellularNic.nrMac harqErrorRate_3rd_Dl:mean -nan
scalar SingleCell_Standalone.ue[1].cellularNic.nrMac harqErrorRate_2nd_Ul:mean -nan
scalar SingleCell_Standalone.ue[1].cellularNic.nrMac harqErrorRate_2nd_Dl:mean -nan
scalar SingleCell_Standalone.ue[1].cellularNic.nrMac harqErrorRate_1st_Ul:mean -nan
scalar SingleCell_Standalone.ue[1].cellularNic.nrMac harqErrorRate_1st_Dl:mean -nan
scalar SingleCell_Standalone.ue[1].cellularNic.nrMac harqErrorRateUl:mean -nan
scalar SingleCell_Standalone.ue[1].cellularNic.nrMac harqErrorRateDl:mean -nan
scalar SingleCell_Standalone.ue[1].cellularNic.nrMac macCellPacketLossUl:mean -nan
scalar SingleCell_Standalone.ue[1].cellularNic.nrMac macCellPacketLossDl:mean -nan
scalar SingleCell_Standalone.ue[1].cellularNic.nrMac macPacketLossUl:mean -nan
scalar SingleCell_Standalone.ue[1].cellularNic.nrMac macPacketLossDl:mean -nan
scalar SingleCell_Standalone.ue[1].cellularNic.nrMac macThroughputUl:simu5g_rateavg -nan
scalar SingleCell_Standalone.ue[1].cellularNic.nrMac macThroughputDl:simu5g_rateavg -nan
scalar SingleCell_Standalone.ue[1].cellularNic.nrMac macDelayUl:mean -nan
scalar SingleCell_Standalone.ue[1].cellularNic.nrMac macDelayDl:mean -nan
scalar SingleCell_Standalone.ue[1].cellularNic.nrMac macCellThroughputUl:simu5g_rateavg -nan
scalar SingleCell_Standalone.ue[1].cellularNic.nrMac macCellThroughputDl:simu5g_rateavg -nan
scalar SingleCell_Standalone.ue[1].cellularNic.nrMac rcvdD2DModeSwitchNotification:count 0
scalar SingleCell_Standalone.ue[1].cellularNic.nrMac sentPacketToLowerLayer:count 0
scalar SingleCell_Standalone.ue[1].cellularNic.nrMac sentPacketToLowerLayer:sum(packetBytes) 0
scalar SingleCell_Standalone.ue[1].cellularNic.nrMac sentPacketToUpperLayer:count 0
scalar SingleCell_Standalone.ue[1].cellularNic.nrMac sentPacketToUpperLayer:sum(packetBytes) 0
scalar SingleCell_Standalone.ue[1].cellularNic.nrMac receivedPacketFromLowerLayer:count 0
scalar SingleCell_Standalone.ue[1].cellularNic.nrMac receivedPacketFromLowerLayer:sum(packetBytes) 0
scalar SingleCell_Standalone.ue[1].cellularNic.nrMac receivedPacketFromUpperLayer:count 0
scalar SingleCell_Standalone.ue[1].cellularNic.nrMac receivedPacketFromUpperLayer:sum(packetBytes) 0
scalar SingleCell_Standalone.ue[1].cellularNic.nrMac macBufferOverFlowD2D:mean -nan
scalar SingleCell_Standalone.ue[1].cellularNic.nrMac macBufferOverFlowUl:mean -nan
scalar SingleCell_Standalone.ue[1].cellularNic.nrMac macBufferOverFlowDl:mean -nan
scalar SingleCell_Standalone.ue[1].cellularNic.nrPhy distance:mean -nan
scalar SingleCell_Standalone.ue[1].cellularNic.nrPhy averageCqiD2D:mean -nan
scalar SingleCell_Standalone.ue[1].cellularNic.nrPhy averageCqiUl:mean -nan
scalar SingleCell_Standalone.ue[1].cellularNic.nrPhy averageCqiUl:count 0
scalar SingleCell_Standalone.ue[1].cellularNic.nrPhy averageCqiDl:mean -nan
scalar SingleCell_Standalone.ue[1].cellularNic.nrPhy averageCqiDl:count 0
scalar SingleCell_Standalone.ue[1].cellularNic.nrChannelModel[0] measuredSinrUl:mean 30.26587168879745
scalar SingleCell_Standalone.ue[1].cellularNic.nrChannelModel[0] measuredSinrDl:mean 58.040023218284929
scalar SingleCell_Standalone.ue[1].cellularNic.nrChannelModel[0] rcvdSinrD2D:mean -nan
scalar SingleCell_Standalone.ue[1].cellularNic.nrChannelModel[0] rcvdSinrUl:mean -nan
scalar SingleCell_Standalone.ue[1].cellularNic.nrChannelModel[0] rcvdSinrDl:mean -nan
scalar SingleCell_Standalone.ue[1].cellularNic packetDropInterfaceDown:count 0
scalar SingleCell_Standalone.ue[1].cellularNic packetDropInterfaceDown:sum(packetBytes) 0
scalar SingleCell_Standalone.ue[1].cellularNic packetDropNoCarrier:count 0
scalar SingleCell_Standalone.ue[1].cellularNic packetDropNoCarrier:sum(packetBytes) 0
scalar SingleCell_Standalone.ue[1].encap pauseSent:count 0
scalar SingleCell_Standalone.ue[1].encap pauseSent:sum 0
scalar SingleCell_Standalone.ue[1].encap decapPk:count 0
scalar SingleCell_Standalone.ue[1].encap decapPk:sum(packetBytes) 0
scalar SingleCell_Standalone.ue[1].encap encapPk:count 0
scalar SingleCell_Standalone.ue[1].encap encapPk:sum(packetBytes) 0
scalar SingleCell_Standalone.ue[1].ipv4.ip packetDropAddressResolutionFailed:count 0
scalar SingleCell_Standalone.ue[1].ipv4.ip packetDropAddressResolutionFailed:sum(packetBytes) 0
scalar SingleCell_Standalone.ue[1].ipv4.ip packetDropHopLimitReached:count 0
scalar SingleCell_Standalone.ue[1].ipv4.ip packetDropHopLimitReached:sum(packetBytes) 0
scalar SingleCell_Standalone.ue[1].ipv4.ip packetDropForwardingDisabled:count 0
scalar SingleCell_Standalone.ue[1].ipv4.ip packetDropForwardingDisabled:sum(packetBytes) 0
scalar SingleCell_Standalone.ue[1].ipv4.ip packetDropNoInterfaceFound:count 0
scalar SingleCell_Standalone.ue[1].ipv4.ip packetDropNoInterfaceFound:sum(packetBytes) 0
scalar SingleCell_Standalone.ue[1].ipv4.ip packetDropNoRouteFound:count 0
scalar SingleCell_Standalone.ue[1].ipv4.ip packetDropNoRouteFound:sum(packetBytes) 0
scalar SingleCell_Standalone.ue[1].ipv4.ip packetDropUndefined:count 0
scalar SingleCell_Standalone.ue[1].ipv4.ip packetDropUndefined:sum(packetBytes) 0
scalar SingleCell_Standalone.ue[1].ipv4.arp arpResolutionFailed:count 0
scalar SingleCell_Standalone.ue[1].ipv4.arp arpResolutionCompleted:count 0
scalar SingleCell_Standalone.ue[1].ipv4.arp arpResolutionInitiated:count 0
scalar SingleCell_Standalone.ue[1].ipv4.arp arpReplySent:count 0
scalar SingleCell_Standalone.ue[1].ipv4.arp arpReplySent:sum(packetBytes) 0
scalar SingleCell_Standalone.ue[1].ipv4.arp arpRequestSent:count 0
scalar SingleCell_Standalone.ue[1].ipv4.arp arpRequestSent:sum(packetBytes) 0
scalar SingleCell_Standalone.ue[1].udp packetReceived:count 0
scalar SingleCell_Standalone.ue[1].udp packetReceived:sum(packetBytes) 0
scalar SingleCell_Standalone.ue[1].udp packetSent:count 0
scalar SingleCell_Standalone.ue[1].udp packetSent:sum(packetBytes) 0
scalar SingleCell_Standalone.ue[1].udp passedUpPk:count 0
scalar SingleCell_Standalone.ue[1].udp droppedPkWrongPort:count 0
scalar SingleCell_Standalone.ue[1].udp droppedPkBadChecksum:count 0
scalar SingleCell_Standalone.server.ppp[0].queue queueingTime:histogram:count 0
scalar SingleCell_Standalone.server.ppp[0].queue queueingTime:histogram:sumweights 0
scalar SingleCell_Standalone.server.ppp[0].queue queueingTime:histogram:mean -nan
scalar SingleCell_Standalone.server.ppp[0].queue queueingTime:histogram:stddev nan
scalar SingleCell_Standalone.server.ppp[0].queue queueingTime:histogram:min nan
scalar SingleCell_Standalone.server.ppp[0].queue queueingTime:histogram:max nan
scalar SingleCell_Standalone.server.ppp[0].queue queueingTime:histogram:numbins 1
scalar SingleCell_Standalone.server.ppp[0].queue queueingTime:histogram:rangemin 0
scalar SingleCell_Standalone.server.ppp[0].queue queueingTime:histogram:rangemax 1
scalar SingleCell_Standalone.server.ppp[0].queue queueingTime:histogram:underflows 0
scalar SingleCell_Standalone.server.ppp[0].queue queueingTime:histogram:overflows 0
scalar SingleCell_Standalone.server.ppp[0].queue outgoingPacketLengths:histogram:count 0
scalar SingleCell_Standalone.server.ppp[0].queue outgoingPacketLengths:histogram:sumweights 0
scalar SingleCell_Standalone.server.ppp[0].queue outgoingPacketLengths:histogram:mean -nan
scalar SingleCell_Standalone.server.ppp[0].queue outgoingPacketLengths:histogram:stddev nan
scalar SingleCell_Standalone.server.ppp[0].queue outgoingPacketLengths:histogram:min nan
scalar SingleCell_Standalone.server.ppp[0].queue outgoingPacketLengths:histogram:max nan
scalar SingleCell_Standalone.server.ppp[0].queue outgoingPacketLengths:histogram:numbins 1
scalar SingleCell_Standalone.server.ppp[0].queue outgoingPacketLengths:histogram:rangemin 0
scalar SingleCell_Standalone.server.ppp[0].queue outgoingPacketLengths:histogram:rangemax 1
scalar SingleCell_Standalone.server.ppp[0].queue outgoingPacketLengths:histogram:underflows 0
scalar SingleCell_Standalone.server.ppp[0].queue outgoingPacketLengths:histogram:overflows 0
scalar SingleCell_Standalone.server.ppp[0].queue flowQueueingTime:histogram:count 0
scalar SingleCell_Standalone.server.ppp[0].queue flowQueueingTime:histogram:sumweights 0
scalar SingleCell_Standalone.server.ppp[0].queue flowQueueingTime:histogram:mean -nan
scalar SingleCell_Standalone.server.ppp[0].queue flowQueueingTime:histogram:stddev nan
scalar SingleCell_Standalone.server.ppp[0].queue flowQueueingTime:histogram:min nan
scalar SingleCell_Standalone.server.ppp[0].queue flowQueueingTime:histogram:max nan
scalar SingleCell_Standalone.server.ppp[0].queue flowQueueingTime:histogram:numbins 1
scalar SingleCell_Standalone.server.ppp[0].queue flowQueueingTime:histogram:rangemin 0
scalar SingleCell_Standalone.server.ppp[0].queue flowQueueingTime:histogram:rangemax 1
scalar SingleCell_Standalone.server.ppp[0].queue flowQueueingTime:histogram:underflows 0
scalar SingleCell_Standalone.server.ppp[0].queue flowQueueingTime:histogram:overflows 0
scalar SingleCell_Standalone.server.ppp[0].queue incomingPacketLengths:histogram:count 0
scalar SingleCell_Standalone.server.ppp[0].queue incomingPacketLengths:histogram:sumweights 0
scalar SingleCell_Standalone.server.ppp[0].queue incomingPacketLengths:histogram:mean -nan
scalar SingleCell_Standalone.server.ppp[0].queue incomingPacketLengths:histogram:stddev nan
scalar SingleCell_Standalone.server.ppp[0].queue incomingPacketLengths:histogram:min nan
scalar SingleCell_Standalone.server.ppp[0].queue incomingPacketLengths:histogram:max nan
scalar SingleCell_Standalone.server.ppp[0].queue incomingPacketLengths:histogram:numbins 1
scalar SingleCell_Standalone.server.ppp[0].queue incomingPacketLengths:histogram:rangemin 0
scalar SingleCell_Standalone.server.ppp[0].queue incomingPacketLengths:histogram:rangemax 1
scalar SingleCell_Standalone.server.ppp[0].queue incomingPacketLengths:histogram:underflows 0
scalar SingleCell_Standalone.server.ppp[0].queue incomingPacketLengths:histogram:overflows 0
scalar SingleCell_Standalone.router.ppp[0].queue queueingTime:histogram:count 0
scalar SingleCell_Standalone.router.ppp[0].queue queueingTime:histogram:sumweights 0
scalar SingleCell_Standalone.router.ppp[0].queue queueingTime:histogram:mean -nan
scalar SingleCell_Standalone.router.ppp[0].queue queueingTime:histogram:stddev nan
scalar SingleCell_Standalone.router.ppp[0].queue queueingTime:histogram:min nan
scalar SingleCell_Standalone.router.ppp[0].queue queueingTime:histogram:max nan
scalar SingleCell_Standalone.router.ppp[0].queue queueingTime:histogram:numbins 1
scalar SingleCell_Standalone.router.ppp[0].queue queueingTime:histogram:rangemin 0
scalar SingleCell_Standalone.router.ppp[0].queue queueingTime:histogram:rangemax 1
scalar SingleCell_Standalone.router.ppp[0].queue queueingTime:histogram:underflows 0
scalar SingleCell_Standalone.router.ppp[0].queue queueingTime:histogram:overflows 0
scalar SingleCell_Standalone.router.ppp[0].queue outgoingPacketLengths:histogram:count 0
scalar SingleCell_Standalone.router.ppp[0].queue outgoingPacketLengths:histogram:sumweights 0
scalar SingleCell_Standalone.router.ppp[0].queue outgoingPacketLengths:histogram:mean -nan
scalar SingleCell_Standalone.router.ppp[0].queue outgoingPacketLengths:histogram:stddev nan
scalar SingleCell_Standalone.router.ppp[0].queue outgoingPacketLengths:histogram:min nan
scalar SingleCell_Standalone.router.ppp[0].queue outgoingPacketLengths:histogram:max nan
scalar SingleCell_Standalone.router.ppp[0].queue outgoingPacketLengths:histogram:numbins 1
scalar SingleCell_Standalone.router.ppp[0].queue outgoingPacketLengths:histogram:rangemin 0
scalar SingleCell_Standalone.router.ppp[0].queue outgoingPacketLengths:histogram:rangemax 1
scalar SingleCell_Standalone.router.ppp[0].queue outgoingPacketLengths:histogram:underflows 0
scalar SingleCell_Standalone.router.ppp[0].queue outgoingPacketLengths:histogram:overflows 0
scalar SingleCell_Standalone.router.ppp[0].queue flowQueueingTime:histogram:count 0
scalar SingleCell_Standalone.router.ppp[0].queue flowQueueingTime:histogram:sumweights 0
scalar SingleCell_Standalone.router.ppp[0].queue flowQueueingTime:histogram:mean -nan
scalar SingleCell_Standalone.router.ppp[0].queue flowQueueingTime:histogram:stddev nan
scalar SingleCell_Standalone.router.ppp[0].queue flowQueueingTime:histogram:min nan
scalar SingleCell_Standalone.router.ppp[0].queue flowQueueingTime:histogram:max nan
scalar SingleCell_Standalone.router.ppp[0].queue flowQueueingTime:histogram:numbins 1
scalar SingleCell_Standalone.router.ppp[0].queue flowQueueingTime:histogram:rangemin 0
scalar SingleCell_Standalone.router.ppp[0].queue flowQueueingTime:histogram:rangemax 1
scalar SingleCell_Standalone.router.ppp[0].queue flowQueueingTime:histogram:underflows 0
scalar SingleCell_Standalone.router.ppp[0].queue flowQueueingTime:histogram:overflows 0
scalar SingleCell_Standalone.router.ppp[0].queue incomingPacketLengths:histogram:count 0
scalar SingleCell_Standalone.router.ppp[0].queue incomingPacketLengths:histogram:sumweights 0
scalar SingleCell_Standalone.router.ppp[0].queue incomingPacketLengths:histogram:mean -nan
scalar SingleCell_Standalone.router.ppp[0].queue incomingPacketLengths:histogram:stddev nan
scalar SingleCell_Standalone.router.ppp[0].queue incomingPacketLengths:histogram:min nan
scalar SingleCell_Standalone.router.ppp[0].queue incomingPacketLengths:histogram:max nan
scalar SingleCell_Standalone.router.ppp[0].queue incomingPacketLengths:histogram:numbins 1
scalar SingleCell_Standalone.router.ppp[0].queue incomingPacketLengths:histogram:rangemin 0
[...]
scalar SingleCell_Standalone.ue[1].cellularNic.nrPhy averageCqiUl:vector:stddev nan
scalar SingleCell_Standalone.ue[1].cellularNic.nrPhy averageCqiUl:vector:min inf
scalar SingleCell_Standalone.ue[1].cellularNic.nrPhy averageCqiUl:vector:max -inf
scalar SingleCell_Standalone.ue[1].cellularNic.nrPhy averageCqiUl:vector:starttime nan
scalar SingleCell_Standalone.ue[1].cellularNic.nrPhy averageCqiUl:vector:endtime nan
scalar SingleCell_Standalone.ue[1].cellularNic.nrPhy averageCqiD2D:vector:count 0
scalar SingleCell_Standalone.ue[1].cellularNic.nrPhy averageCqiD2D:vector:sum 0
scalar SingleCell_Standalone.ue[1].cellularNic.nrPhy averageCqiD2D:vector:sumweights 0
scalar SingleCell_Standalone.ue[1].cellularNic.nrPhy averageCqiD2D:vector:mean -nan
scalar SingleCell_Standalone.ue[1].cellularNic.nrPhy averageCqiD2D:vector:stddev nan
scalar SingleCell_Standalone.ue[1].cellularNic.nrPhy averageCqiD2D:vector:min inf
scalar SingleCell_Standalone.ue[1].cellularNic.nrPhy averageCqiD2D:vector:max -inf
scalar SingleCell_Standalone.ue[1].cellularNic.nrPhy averageCqiD2D:vector:starttime nan
scalar SingleCell_Standalone.ue[1].cellularNic.nrPhy averageCqiD2D:vector:endtime nan
scalar SingleCell_Standalone.ue[1].cellularNic.nrChannelModel[0] rcvdSinrDl:vector:count 0
scalar SingleCell_Standalone.ue[1].cellularNic.nrChannelModel[0] rcvdSinrDl:vector:sum 0
scalar SingleCell_Standalone.ue[1].cellularNic.nrChannelModel[0] rcvdSinrDl:vector:sumweights 0
scalar SingleCell_Standalone.ue[1].cellularNic.nrChannelModel[0] rcvdSinrDl:vector:mean -nan
scalar SingleCell_Standalone.ue[1].cellularNic.nrChannelModel[0] rcvdSinrDl:vector:stddev nan
scalar SingleCell_Standalone.ue[1].cellularNic.nrChannelModel[0] rcvdSinrDl:vector:min inf
scalar SingleCell_Standalone.ue[1].cellularNic.nrChannelModel[0] rcvdSinrDl:vector:max -inf
scalar SingleCell_Standalone.ue[1].cellularNic.nrChannelModel[0] rcvdSinrDl:vector:starttime nan
scalar SingleCell_Standalone.ue[1].cellularNic.nrChannelModel[0] rcvdSinrDl:vector:endtime nan
scalar SingleCell_Standalone.ue[1].cellularNic.nrChannelModel[0] rcvdSinrUl:vector:count 0
scalar SingleCell_Standalone.ue[1].cellularNic.nrChannelModel[0] rcvdSinrUl:vector:sum 0
scalar SingleCell_Standalone.ue[1].cellularNic.nrChannelModel[0] rcvdSinrUl:vector:sumweights 0
scalar SingleCell_Standalone.ue[1].cellularNic.nrChannelModel[0] rcvdSinrUl:vector:mean -nan
scalar SingleCell_Standalone.ue[1].cellularNic.nrChannelModel[0] rcvdSinrUl:vector:stddev nan
scalar SingleCell_Standalone.ue[1].cellularNic.nrChannelModel[0] rcvdSinrUl:vector:min inf
scalar SingleCell_Standalone.ue[1].cellularNic.nrChannelModel[0] rcvdSinrUl:vector:max -inf
scalar SingleCell_Standalone.ue[1].cellularNic.nrChannelModel[0] rcvdSinrUl:vector:starttime nan
scalar SingleCell_Standalone.ue[1].cellularNic.nrChannelModel[0] rcvdSinrUl:vector:endtime nan
scalar SingleCell_Standalone.ue[1].cellularNic.nrChannelModel[0] rcvdSinrD2D:vector:count 0
scalar SingleCell_Standalone.ue[1].cellularNic.nrChannelModel[0] rcvdSinrD2D:vector:sum 0
scalar SingleCell_Standalone.ue[1].cellularNic.nrChannelModel[0] rcvdSinrD2D:vector:sumweights 0
scalar SingleCell_Standalone.ue[1].cellularNic.nrChannelModel[0] rcvdSinrD2D:vector:mean -nan
scalar SingleCell_Standalone.ue[1].cellularNic.nrChannelModel[0] rcvdSinrD2D:vector:stddev nan
scalar SingleCell_Standalone.ue[1].cellularNic.nrChannelModel[0] rcvdSinrD2D:vector:min inf
scalar SingleCell_Standalone.ue[1].cellularNic.nrChannelModel[0] rcvdSinrD2D:vector:max -inf
scalar SingleCell_Standalone.ue[1].cellularNic.nrChannelModel[0] rcvdSinrD2D:vector:starttime nan
scalar SingleCell_Standalone.ue[1].cellularNic.nrChannelModel[0] rcvdSinrD2D:vector:endtime nan
scalar SingleCell_Standalone.ue[1].cellularNic.nrChannelModel[0] measuredSinrDl:vector:count 3334
scalar SingleCell_Standalone.ue[1].cellularNic.nrChannelModel[0] measuredSinrDl:vector:sum 193505.43740976194
scalar SingleCell_Standalone.ue[1].cellularNic.nrChannelModel[0] measuredSinrDl:vector:sumweights 3334
scalar SingleCell_Standalone.ue[1].cellularNic.nrChannelModel[0] measuredSinrDl:vector:mean 58.040023218284929
scalar SingleCell_Standalone.ue[1].cellularNic.nrChannelModel[0] measuredSinrDl:vector:stddev 0
scalar SingleCell_Standalone.ue[1].cellularNic.nrChannelModel[0] measuredSinrDl:vector:min 58.040023218280155
scalar SingleCell_Standalone.ue[1].cellularNic.nrChannelModel[0] measuredSinrDl:vector:max 58.040023218280155
scalar SingleCell_Standalone.ue[1].cellularNic.nrChannelModel[0] measuredSinrDl:vector:starttime 0.002
scalar SingleCell_Standalone.ue[1].cellularNic.nrChannelModel[0] measuredSinrDl:vector:endtime 20
scalar SingleCell_Standalone.ue[1].cellularNic.nrChannelModel[0] measuredSinrUl:vector:count 3334
scalar SingleCell_Standalone.ue[1].cellularNic.nrChannelModel[0] measuredSinrUl:vector:sum 100906.4162104507
scalar SingleCell_Standalone.ue[1].cellularNic.nrChannelModel[0] measuredSinrUl:vector:sumweights 3334
scalar SingleCell_Standalone.ue[1].cellularNic.nrChannelModel[0] measuredSinrUl:vector:mean 30.26587168879745
scalar SingleCell_Standalone.ue[1].cellularNic.nrChannelModel[0] measuredSinrUl:vector:stddev 0
scalar SingleCell_Standalone.ue[1].cellularNic.nrChannelModel[0] measuredSinrUl:vector:min 30.265871688799425
scalar SingleCell_Standalone.ue[1].cellularNic.nrChannelModel[0] measuredSinrUl:vector:max 30.265871688799425
scalar SingleCell_Standalone.ue[1].cellularNic.nrChannelModel[0] measuredSinrUl:vector:starttime 0.002
scalar SingleCell_Standalone.ue[1].cellularNic.nrChannelModel[0] measuredSinrUl:vector:endtime 20
scalar SingleCell_Standalone.ue[1].cellularNic packetDropInterfaceDown:vector(packetBytes):count 0
scalar SingleCell_Standalone.ue[1].cellularNic packetDropInterfaceDown:vector(packetBytes):sum 0
scalar SingleCell_Standalone.ue[1].cellularNic packetDropInterfaceDown:vector(packetBytes):sumweights 0
scalar SingleCell_Standalone.ue[1].cellularNic packetDropInterfaceDown:vector(packetBytes):mean -nan
scalar SingleCell_Standalone.ue[1].cellularNic packetDropInterfaceDown:vector(packetBytes):stddev nan
scalar SingleCell_Standalone.ue[1].cellularNic packetDropInterfaceDown:vector(packetBytes):min inf
scalar SingleCell_Standalone.ue[1].cellularNic packetDropInterfaceDown:vector(packetBytes):max -inf
scalar SingleCell_Standalone.ue[1].cellularNic packetDropInterfaceDown:vector(packetBytes):starttime nan
scalar SingleCell_Standalone.ue[1].cellularNic packetDropInterfaceDown:vector(packetBytes):endtime nan
scalar SingleCell_Standalone.ue[1].cellularNic packetDropNoCarrier:vector(packetBytes):count 0
scalar SingleCell_Standalone.ue[1].cellularNic packetDropNoCarrier:vector(packetBytes):sum 0
scalar SingleCell_Standalone.ue[1].cellularNic packetDropNoCarrier:vector(packetBytes):sumweights 0
scalar SingleCell_Standalone.ue[1].cellularNic packetDropNoCarrier:vector(packetBytes):mean -nan
scalar SingleCell_Standalone.ue[1].cellularNic packetDropNoCarrier:vector(packetBytes):stddev nan
scalar SingleCell_Standalone.ue[1].cellularNic packetDropNoCarrier:vector(packetBytes):min inf
scalar SingleCell_Standalone.ue[1].cellularNic packetDropNoCarrier:vector(packetBytes):max -inf
scalar SingleCell_Standalone.ue[1].cellularNic packetDropNoCarrier:vector(packetBytes):starttime nan
scalar SingleCell_Standalone.ue[1].cellularNic packetDropNoCarrier:vector(packetBytes):endtime nan
scalar SingleCell_Standalone.ue[1].encap encapPk:vector(packetBytes):count 0
scalar SingleCell_Standalone.ue[1].encap encapPk:vector(packetBytes):sum 0
scalar SingleCell_Standalone.ue[1].encap encapPk:vector(packetBytes):sumweights 0
scalar SingleCell_Standalone.ue[1].encap encapPk:vector(packetBytes):mean -nan
scalar SingleCell_Standalone.ue[1].encap encapPk:vector(packetBytes):stddev nan
scalar SingleCell_Standalone.ue[1].encap encapPk:vector(packetBytes):min inf
scalar SingleCell_Standalone.ue[1].encap encapPk:vector(packetBytes):max -inf
scalar SingleCell_Standalone.ue[1].encap encapPk:vector(packetBytes):starttime nan
scalar SingleCell_Standalone.ue[1].encap encapPk:vector(packetBytes):endtime nan
scalar SingleCell_Standalone.ue[1].encap decapPk:vector(packetBytes):count 0
scalar SingleCell_Standalone.ue[1].encap decapPk:vector(packetBytes):sum 0
scalar SingleCell_Standalone.ue[1].encap decapPk:vector(packetBytes):sumweights 0
scalar SingleCell_Standalone.ue[1].encap decapPk:vector(packetBytes):mean -nan
scalar SingleCell_Standalone.ue[1].encap decapPk:vector(packetBytes):stddev nan
scalar SingleCell_Standalone.ue[1].encap decapPk:vector(packetBytes):min inf
scalar SingleCell_Standalone.ue[1].encap decapPk:vector(packetBytes):max -inf
scalar SingleCell_Standalone.ue[1].encap decapPk:vector(packetBytes):starttime nan
scalar SingleCell_Standalone.ue[1].encap decapPk:vector(packetBytes):endtime nan
scalar SingleCell_Standalone.ue[1].encap pauseSent:vector:count 0
scalar SingleCell_Standalone.ue[1].encap pauseSent:vector:sum 0
scalar SingleCell_Standalone.ue[1].encap pauseSent:vector:sumweights 0
scalar SingleCell_Standalone.ue[1].encap pauseSent:vector:mean -nan
scalar SingleCell_Standalone.ue[1].encap pauseSent:vector:stddev nan
scalar SingleCell_Standalone.ue[1].encap pauseSent:vector:min inf
scalar SingleCell_Standalone.ue[1].encap pauseSent:vector:max -inf
scalar SingleCell_Standalone.ue[1].encap pauseSent:vector:starttime nan
scalar SingleCell_Standalone.ue[1].encap pauseSent:vector:endtime nan
scalar SingleCell_Standalone.ue[1].ipv4.ip packetDropAddressResolutionFailed:vector(packetBytes):count 0
scalar SingleCell_Standalone.ue[1].ipv4.ip packetDropAddressResolutionFailed:vector(packetBytes):sum 0
scalar SingleCell_Standalone.ue[1].ipv4.ip packetDropAddressResolutionFailed:vector(packetBytes):sumweights 0
scalar SingleCell_Standalone.ue[1].ipv4.ip packetDropAddressResolutionFailed:vector(packetBytes):mean -nan
scalar SingleCell_Standalone.ue[1].ipv4.ip packetDropAddressResolutionFailed:vector(packetBytes):stddev nan
scalar SingleCell_Standalone.ue[1].ipv4.ip packetDropAddressResolutionFailed:vector(packetBytes):min inf
scalar SingleCell_Standalone.ue[1].ipv4.ip packetDropAddressResolutionFailed:vector(packetBytes):max -inf
scalar SingleCell_Standalone.ue[1].ipv4.ip packetDropAddressResolutionFailed:vector(packetBytes):starttime nan
scalar SingleCell_Standalone.ue[1].ipv4.ip packetDropAddressResolutionFailed:vector(packetBytes):endtime nan
scalar SingleCell_Standalone.ue[1].ipv4.ip packetDropHopLimitReached:vector(packetBytes):count 0
scalar SingleCell_Standalone.ue[1].ipv4.ip packetDropHopLimitReached:vector(packetBytes):sum 0
scalar SingleCell_Standalone.ue[1].ipv4.ip packetDropHopLimitReached:vector(packetBytes):sumweights 0
scalar SingleCell_Standalone.ue[1].ipv4.ip packetDropHopLimitReached:vector(packetBytes):mean -nan
scalar SingleCell_Standalone.ue[1].ipv4.ip packetDropHopLimitReached:vector(packetBytes):stddev nan
scalar SingleCell_Standalone.ue[1].ipv4.ip packetDropHopLimitReached:vector(packetBytes):min inf
scalar SingleCell_Standalone.ue[1].ipv4.ip packetDropHopLimitReached:vector(packetBytes):max -inf
scalar SingleCell_Standalone.ue[1].ipv4.ip packetDropHopLimitReached:vector(packetBytes):starttime nan
scalar SingleCell_Standalone.ue[1].ipv4.ip packetDropHopLimitReached:vector(packetBytes):endtime nan
scalar SingleCell_Standalone.ue[1].ipv4.ip packetDropForwardingDisabled:vector(packetBytes):count 0
scalar SingleCell_Standalone.ue[1].ipv4.ip packetDropForwardingDisabled:vector(packetBytes):sum 0
scalar SingleCell_Standalone.ue[1].ipv4.ip packetDropForwardingDisabled:vector(packetBytes):sumweights 0
scalar SingleCell_Standalone.ue[1].ipv4.ip packetDropForwardingDisabled:vector(packetBytes):mean -nan
scalar SingleCell_Standalone.ue[1].ipv4.ip packetDropForwardingDisabled:vector(packetBytes):stddev nan
scalar SingleCell_Standalone.ue[1].ipv4.ip packetDropForwardingDisabled:vector(packetBytes):min inf
scalar SingleCell_Standalone.ue[1].ipv4.ip packetDropForwardingDisabled:vector(packetBytes):max -inf
scalar SingleCell_Standalone.ue[1].ipv4.ip packetDropForwardingDisabled:vector(packetBytes):starttime nan
scalar SingleCell_Standalone.ue[1].ipv4.ip packetDropForwardingDisabled:vector(packetBytes):endtime nan
scalar SingleCell_Standalone.ue[1].ipv4.ip packetDropNoInterfaceFound:vector(packetBytes):count 0
scalar SingleCell_Standalone.ue[1].ipv4.ip packetDropNoInterfaceFound:vector(packetBytes):sum 0
scalar SingleCell_Standalone.ue[1].ipv4.ip packetDropNoInterfaceFound:vector(packetBytes):sumweights 0
scalar SingleCell_Standalone.ue[1].ipv4.ip packetDropNoInterfaceFound:vector(packetBytes):mean -nan
scalar SingleCell_Standalone.ue[1].ipv4.ip packetDropNoInterfaceFound:vector(packetBytes):stddev nan
scalar SingleCell_Standalone.ue[1].ipv4.ip packetDropNoInterfaceFound:vector(packetBytes):min inf
scalar SingleCell_Standalone.ue[1].ipv4.ip packetDropNoInterfaceFound:vector(packetBytes):max -inf
scalar SingleCell_Standalone.ue[1].ipv4.ip packetDropNoInterfaceFound:vector(packetBytes):starttime nan
scalar SingleCell_Standalone.ue[1].ipv4.ip packetDropNoInterfaceFound:vector(packetBytes):endtime nan
scalar SingleCell_Standalone.ue[1].ipv4.ip packetDropNoRouteFound:vector(packetBytes):count 0
scalar SingleCell_Standalone.ue[1].ipv4.ip packetDropNoRouteFound:vector(packetBytes):sum 0
scalar SingleCell_Standalone.ue[1].ipv4.ip packetDropNoRouteFound:vector(packetBytes):sumweights 0
scalar SingleCell_Standalone.ue[1].ipv4.ip packetDropNoRouteFound:vector(packetBytes):mean -nan
scalar SingleCell_Standalone.ue[1].ipv4.ip packetDropNoRouteFound:vector(packetBytes):stddev nan
scalar SingleCell_Standalone.ue[1].ipv4.ip packetDropNoRouteFound:vector(packetBytes):min inf
scalar SingleCell_Standalone.ue[1].ipv4.ip packetDropNoRouteFound:vector(packetBytes):max -inf
scalar SingleCell_Standalone.ue[1].ipv4.ip packetDropNoRouteFound:vector(packetBytes):starttime nan
scalar SingleCell_Standalone.ue[1].ipv4.ip packetDropNoRouteFound:vector(packetBytes):endtime nan
scalar SingleCell_Standalone.ue[1].ipv4.ip packetDropUndefined:vector(packetBytes):count 0
scalar SingleCell_Standalone.ue[1].ipv4.ip packetDropUndefined:vector(packetBytes):sum 0
scalar SingleCell_Standalone.ue[1].ipv4.ip packetDropUndefined:vector(packetBytes):sumweights 0
scalar SingleCell_Standalone.ue[1].ipv4.ip packetDropUndefined:vector(packetBytes):mean -nan
scalar SingleCell_Standalone.ue[1].ipv4.ip packetDropUndefined:vector(packetBytes):stddev nan
scalar SingleCell_Standalone.ue[1].ipv4.ip packetDropUndefined:vector(packetBytes):min inf
scalar SingleCell_Standalone.ue[1].ipv4.ip packetDropUndefined:vector(packetBytes):max -inf
scalar SingleCell_Standalone.ue[1].ipv4.ip packetDropUndefined:vector(packetBytes):starttime nan
scalar SingleCell_Standalone.ue[1].ipv4.ip packetDropUndefined:vector(packetBytes):endtime nan
scalar SingleCell_Standalone.ue[1].ipv4.arp arpRequestSent:vector(packetBytes):count 0
scalar SingleCell_Standalone.ue[1].ipv4.arp arpRequestSent:vector(packetBytes):sum 0
scalar SingleCell_Standalone.ue[1].ipv4.arp arpRequestSent:vector(packetBytes):sumweights 0
scalar SingleCell_Standalone.ue[1].ipv4.arp arpRequestSent:vector(packetBytes):mean -nan
scalar SingleCell_Standalone.ue[1].ipv4.arp arpRequestSent:vector(packetBytes):stddev nan
scalar SingleCell_Standalone.ue[1].ipv4.arp arpRequestSent:vector(packetBytes):min inf
scalar SingleCell_Standalone.ue[1].ipv4.arp arpRequestSent:vector(packetBytes):max -inf
scalar SingleCell_Standalone.ue[1].ipv4.arp arpRequestSent:vector(packetBytes):starttime nan
scalar SingleCell_Standalone.ue[1].ipv4.arp arpRequestSent:vector(packetBytes):endtime nan
scalar SingleCell_Standalone.ue[1].ipv4.arp arpReplySent:vector(packetBytes):count 0
scalar SingleCell_Standalone.ue[1].ipv4.arp arpReplySent:vector(packetBytes):sum 0
scalar SingleCell_Standalone.ue[1].ipv4.arp arpReplySent:vector(packetBytes):sumweights 0
scalar SingleCell_Standalone.ue[1].ipv4.arp arpReplySent:vector(packetBytes):mean -nan
scalar SingleCell_Standalone.ue[1].ipv4.arp arpReplySent:vector(packetBytes):stddev nan
scalar SingleCell_Standalone.ue[1].ipv4.arp arpReplySent:vector(packetBytes):min inf
scalar SingleCell_Standalone.ue[1].ipv4.arp arpReplySent:vector(packetBytes):max -inf
scalar SingleCell_Standalone.ue[1].ipv4.arp arpReplySent:vector(packetBytes):starttime nan
scalar SingleCell_Standalone.ue[1].ipv4.arp arpReplySent:vector(packetBytes):endtime nan
scalar SingleCell_Standalone.ue[1].udp packetSent:vector(packetBytes):count 0
scalar SingleCell_Standalone.ue[1].udp packetSent:vector(packetBytes):sum 0
scalar SingleCell_Standalone.ue[1].udp packetSent:vector(packetBytes):sumweights 0
scalar SingleCell_Standalone.ue[1].udp packetSent:vector(packetBytes):mean -nan
scalar SingleCell_Standalone.ue[1].udp packetSent:vector(packetBytes):stddev nan
scalar SingleCell_Standalone.ue[1].udp packetSent:vector(packetBytes):min inf
scalar SingleCell_Standalone.ue[1].udp packetSent:vector(packetBytes):max -inf
scalar SingleCell_Standalone.ue[1].udp packetSent:vector(packetBytes):starttime nan
scalar SingleCell_Standalone.ue[1].udp packetSent:vector(packetBytes):endtime nan
scalar SingleCell_Standalone.ue[1].udp packetReceived:vector(packetBytes):count 0
scalar SingleCell_Standalone.ue[1].udp packetReceived:vector(packetBytes):sum 0
scalar SingleCell_Standalone.ue[1].udp packetReceived:vector(packetBytes):sumweights 0
scalar SingleCell_Standalone.ue[1].udp packetReceived:vector(packetBytes):mean -nan
scalar SingleCell_Standalone.ue[1].udp packetReceived:vector(packetBytes):stddev nan
scalar SingleCell_Standalone.ue[1].udp packetReceived:vector(packetBytes):min inf
scalar SingleCell_Standalone.ue[1].udp packetReceived:vector(packetBytes):max -inf
scalar SingleCell_Standalone.ue[1].udp packetReceived:vector(packetBytes):starttime nan
scalar SingleCell_Standalone.ue[1].udp packetReceived:vector(packetBytes):endtime nan
scalar SingleCell_Standalone.ue[1].udp passedUpPk:vector(count):count 1
scalar SingleCell_Standalone.ue[1].udp passedUpPk:vector(count):sum 0
scalar SingleCell_Standalone.ue[1].udp passedUpPk:vector(count):sumweights 1
scalar SingleCell_Standalone.ue[1].udp passedUpPk:vector(count):mean 0
scalar SingleCell_Standalone.ue[1].udp passedUpPk:vector(count):stddev nan
scalar SingleCell_Standalone.ue[1].udp passedUpPk:vector(count):min 0
scalar SingleCell_Standalone.ue[1].udp passedUpPk:vector(count):max 0
scalar SingleCell_Standalone.ue[1].udp passedUpPk:vector(count):starttime 0
scalar SingleCell_Standalone.ue[1].udp passedUpPk:vector(count):endtime 0
scalar SingleCell_Standalone.ue[1].udp droppedPkWrongPort:vector(count):count 1
scalar SingleCell_Standalone.ue[1].udp droppedPkWrongPort:vector(count):sum 0
scalar SingleCell_Standalone.ue[1].udp droppedPkWrongPort:vector(count):sumweights 1
scalar SingleCell_Standalone.ue[1].udp droppedPkWrongPort:vector(count):mean 0
scalar SingleCell_Standalone.ue[1].udp droppedPkWrongPort:vector(count):stddev nan
scalar SingleCell_Standalone.ue[1].udp droppedPkWrongPort:vector(count):min 0
scalar SingleCell_Standalone.ue[1].udp droppedPkWrongPort:vector(count):max 0
scalar SingleCell_Standalone.ue[1].udp droppedPkWrongPort:vector(count):starttime 0
scalar SingleCell_Standalone.ue[1].udp droppedPkWrongPort:vector(count):endtime 0
scalar SingleCell_Standalone.ue[1].udp droppedPkBadChecksum:vector(count):count 1
scalar SingleCell_Standalone.ue[1].udp droppedPkBadChecksum:vector(count):sum 0
scalar SingleCell_Standalone.ue[1].udp droppedPkBadChecksum:vector(count):sumweights 1
scalar SingleCell_Standalone.ue[1].udp droppedPkBadChecksum:vector(count):mean 0
scalar SingleCell_Standalone.ue[1].udp droppedPkBadChecksum:vector(count):stddev nan
scalar SingleCell_Standalone.ue[1].udp droppedPkBadChecksum:vector(count):min 0
scalar SingleCell_Standalone.ue[1].udp droppedPkBadChecksum:vector(count):max 0
scalar SingleCell_Standalone.ue[1].udp droppedPkBadChecksum:vector(count):starttime 0
scalar SingleCell_Standalone.ue[1].udp droppedPkBadChecksum:vector(count):endtime 0

