version 3
run VoIP-DL-0-20260712-21:01:44-253981
attr configname VoIP-DL
attr datetime 20260712-21:01:44
attr datetimef 20260712-210144
attr experiment VoIP-DL
attr inifile omnetpp.ini
attr iterationvars ""
attr iterationvarsd ""
attr iterationvarsf ""
attr measurement ""
attr network simu5g.simulations.nr.networks.SingleCell_Standalone
attr processid 253981
attr repetition 0
attr replication #0
attr resultdir results
attr runnumber 0
attr seedset 0
config **.param-recording false
config image-path /home/andras/projects/Simu5G-fork/simu5g-fork/images
config output-scalar-file results/omnetpp.ini-VoIP-DL-#0.sca
config output-scalar-precision 17
config output-vector-file results/omnetpp.ini-VoIP-DL-#0.vec
config output-vector-precision 17
config record-eventlog false
config sim-time-limit 20s
config extends Standalone
config *.ue[*].numApps 4
config *.server.numApps 8
config *.ue[*].app[*].typename VoipReceiver
config *.ue[*].app[0].localPort 3000
config *.ue[*].app[1].localPort 3001
config *.ue[*].app[2].localPort 3002
config *.ue[*].app[3].localPort 3003
config *.server.app[*].packetSize 40B
config *.server.app[*].typename VoipSender
config *.server.app[0..3].destAddress "\"ue[0]\""
config *.server.app[0].localPort 3088+ancestorIndex(0)
config *.server.app[1].localPort 3089+ancestorIndex(0)
config *.server.app[2].localPort 3090+ancestorIndex(0)
config *.server.app[3].localPort 3091+ancestorIndex(0)
config *.server.app[4..7].destAddress "\"ue[1]\""
config *.server.app[4].localPort 3092+ancestorIndex(0)
config *.server.app[5].localPort 3093+ancestorIndex(0)
config *.server.app[6].localPort 3094+ancestorIndex(0)
config *.server.app[7].localPort 3095+ancestorIndex(0)
config *.server.app[0].destPort 3000
config *.server.app[1].destPort 3001
config *.server.app[2].destPort 3002
config *.server.app[3].destPort 3003
config *.server.app[4].destPort 3000
config *.server.app[5].destPort 3001
config *.server.app[6].destPort 3002
config *.server.app[7].destPort 3003
config *.server.app[0..3].startTime uniform(0s,0.02s)
config *.server.app[4..7].startTime "uniform(0.03s, 0.05s)"
config network simu5g.simulations.nr.networks.SingleCell_Standalone
config sim-time-limit 20s
config *.gnb.mobility.initialX 450m
config *.gnb.mobility.initialY 300m
config *.gnb.cellularNic.hasSdap true
config *.ue[*].cellularNic.hasSdap true
config *.gnb.cellularNic.sdap.drbConfig "[\n    {\"drb\": 0, \"ue\": 2049, \"qfiList\": [1, 2], \"rlcType\": \"UM\"},\n    {\"drb\": 1, \"ue\": 2049, \"qfiList\": [3, 4], \"rlcType\": \"UM\"},\n    {\"drb\": 0, \"ue\": 2050, \"qfiList\": [1, 2], \"rlcType\": \"UM\"},\n    {\"drb\": 1, \"ue\": 2050, \"qfiList\": [3, 4], \"rlcType\": \"UM\"}\n    ]"
config *.gnb.cellularNic.mac.drbQosConfig "[\n    {\"drb\": 0, \"ue\": 2049, \"gbr\": true, \"delayBudget\": 100, \"per\": 1e-2, \"priority\": 2},\n    {\"drb\": 1, \"ue\": 2049, \"gbr\": true, \"delayBudget\": 50,  \"per\": 1e-3, \"priority\": 1},\n    {\"drb\": 0, \"ue\": 2050, \"gbr\": true, \"delayBudget\": 100, \"per\": 1e-2, \"priority\": 2},\n    {\"drb\": 1, \"ue\": 2050, \"gbr\": true, \"delayBudget\": 50,  \"per\": 1e-3, \"priority\": 1}\n    ]"
config *.gnb.cellularNic.mac.schedulingDisciplineDl "\"QOS_PF\""
config *.gnb.cellularNic.mac.schedulingDisciplineUl "\"QOS_PF\""
config *.numUe 2
config *.ue[*].cellularNic.nrPhy.dynamicCellAssociation false
config *.ue[*].servingNodeId 0
config *.ue[*].nrServingNodeId 1
config *.ue[0].mobility.initialX 350m
config *.ue[0].mobility.initialY 400m
config *.ue[1].mobility.initialX 550m
config *.ue[1].mobility.initialY 400m
config *.ue[*].cellularNic.sdap.drbConfig "[\n    {\"drb\": 0, \"qfiList\": [1, 2], \"rlcType\": \"UM\"},\n    {\"drb\": 1, \"qfiList\": [3, 4], \"rlcType\": \"UM\"}\n    ]"
config sim-time-limit 20s
config **.routingRecorder.enabled false
config output-scalar-file results/VoIP-DL/0.sca
config output-vector-file results/VoIP-DL/0.vec
config seed-set 0
config **.vector-recording true
config **.mobility.constraintAreaMaxX 1000m
config **.mobility.constraintAreaMaxY 1000m
config **.mobility.constraintAreaMinX 0m
config **.mobility.constraintAreaMinY 0m
config **.mobility.constraintAreaMinZ 0m
config **.mobility.constraintAreaMaxZ 0m
config **.mobility.initFromDisplayString false
config **.numBands 50
config **.ueTxPower 26dBm
config **.eNodeBTxPower 40dBm
config **.targetBler 0.01
config **.blerShift 5
config *.configurator.config "xmldoc(\"./demo.xml\")"

scalar SingleCell_Standalone.server.lo[0].lo rcvdPkFromHl:count 0
scalar SingleCell_Standalone.server.lo[0].lo rcvdPkFromHl:sum(packetBytes) 0
scalar SingleCell_Standalone.server.lo[0].lo passedUpPk:count 0
scalar SingleCell_Standalone.server.lo[0].lo passedUpPk:sum(packetBytes) 0
scalar SingleCell_Standalone.server.lo[0] packetDropInterfaceDown:count 0
scalar SingleCell_Standalone.server.lo[0] packetDropInterfaceDown:sum(packetBytes) 0
scalar SingleCell_Standalone.server.lo[0] packetDropNoCarrier:count 0
scalar SingleCell_Standalone.server.lo[0] packetDropNoCarrier:sum(packetBytes) 0
scalar SingleCell_Standalone.server.ppp[0].queue queueLength:last 0
scalar SingleCell_Standalone.server.ppp[0].queue queueLength:max 0
scalar SingleCell_Standalone.server.ppp[0].queue queueLength:timeavg 0
scalar SingleCell_Standalone.server.ppp[0].queue queueBitLength:last 0
scalar SingleCell_Standalone.server.ppp[0].queue queueBitLength:max 0
scalar SingleCell_Standalone.server.ppp[0].queue queueBitLength:timeavg 0
scalar SingleCell_Standalone.server.ppp[0].queue outgoingPackets:count 5063
scalar SingleCell_Standalone.server.ppp[0].queue outgoingPacketLengths:sum 2754272
scalar SingleCell_Standalone.server.ppp[0].queue incomingPackets:count 5063
scalar SingleCell_Standalone.server.ppp[0].queue incomingPacketLengths:sum 2754272
scalar SingleCell_Standalone.server.ppp[0].queue droppedPacketsQueueOverflow:count 0
scalar SingleCell_Standalone.server.ppp[0].queue droppedPacketLengthsQueueOverflow:sum 0
scalar SingleCell_Standalone.server.ppp[0].ppp transmissionState:timeavg 1.5189000000000606e-05
scalar SingleCell_Standalone.server.ppp[0].ppp rxPkOk:count 0
scalar SingleCell_Standalone.server.ppp[0].ppp rxPkOk:sum(packetBytes) 0
scalar SingleCell_Standalone.server.ppp[0].ppp txPk:count 5063
scalar SingleCell_Standalone.server.ppp[0].ppp txPk:sum(packetBytes) 379725
scalar SingleCell_Standalone.server.ppp[0].ppp rcvdPkFromHl:count 5063
scalar SingleCell_Standalone.server.ppp[0].ppp rcvdPkFromHl:sum(packetBytes) 344284
scalar SingleCell_Standalone.server.ppp[0].ppp passedUpPk:count 0
scalar SingleCell_Standalone.server.ppp[0].ppp passedUpPk:sum(packetBytes) 0
scalar SingleCell_Standalone.server.ppp[0].ppp packetDropIncorrectlyReceived:count 0
scalar SingleCell_Standalone.server.ppp[0].ppp packetDropIncorrectlyReceived:sum(packetBytes) 0
scalar SingleCell_Standalone.server.ppp[0].ppp packetDropInterfaceDown:count 0
scalar SingleCell_Standalone.server.ppp[0].ppp packetDropInterfaceDown:sum(packetBytes) 0
scalar SingleCell_Standalone.server.ppp[0] packetDropInterfaceDown:count 0
scalar SingleCell_Standalone.server.ppp[0] packetDropInterfaceDown:sum(packetBytes) 0
scalar SingleCell_Standalone.server.ppp[0] packetDropNoCarrier:count 0
scalar SingleCell_Standalone.server.ppp[0] packetDropNoCarrier:sum(packetBytes) 0
scalar SingleCell_Standalone.server.ipv4.ip packetDropAddressResolutionFailed:count 0
scalar SingleCell_Standalone.server.ipv4.ip packetDropAddressResolutionFailed:sum(packetBytes) 0
scalar SingleCell_Standalone.server.ipv4.ip packetDropHopLimitReached:count 0
scalar SingleCell_Standalone.server.ipv4.ip packetDropHopLimitReached:sum(packetBytes) 0
scalar SingleCell_Standalone.server.ipv4.ip packetDropForwardingDisabled:count 0
scalar SingleCell_Standalone.server.ipv4.ip packetDropForwardingDisabled:sum(packetBytes) 0
scalar SingleCell_Standalone.server.ipv4.ip packetDropNoInterfaceFound:count 0
scalar SingleCell_Standalone.server.ipv4.ip packetDropNoInterfaceFound:sum(packetBytes) 0
scalar SingleCell_Standalone.server.ipv4.ip packetDropNoRouteFound:count 0
scalar SingleCell_Standalone.server.ipv4.ip packetDropNoRouteFound:sum(packetBytes) 0
scalar SingleCell_Standalone.server.ipv4.ip packetDropUndefined:count 0
scalar SingleCell_Standalone.server.ipv4.ip packetDropUndefined:sum(packetBytes) 0
scalar SingleCell_Standalone.server.ipv4.arp arpResolutionFailed:count 0
scalar SingleCell_Standalone.server.ipv4.arp arpResolutionCompleted:count 0
scalar SingleCell_Standalone.server.ipv4.arp arpResolutionInitiated:count 0
scalar SingleCell_Standalone.server.ipv4.arp arpReplySent:count 0
scalar SingleCell_Standalone.server.ipv4.arp arpReplySent:sum(packetBytes) 0
scalar SingleCell_Standalone.server.ipv4.arp arpRequestSent:count 0
scalar SingleCell_Standalone.server.ipv4.arp arpRequestSent:sum(packetBytes) 0
scalar SingleCell_Standalone.server.udp packetReceived:count 0
scalar SingleCell_Standalone.server.udp packetReceived:sum(packetBytes) 0
scalar SingleCell_Standalone.server.udp packetSent:count 5063
scalar SingleCell_Standalone.server.udp packetSent:sum(packetBytes) 243024
scalar SingleCell_Standalone.server.udp passedUpPk:count 0
scalar SingleCell_Standalone.server.udp droppedPkWrongPort:count 0
scalar SingleCell_Standalone.server.udp droppedPkBadChecksum:count 0
scalar SingleCell_Standalone.server.app[0] voipGeneratedThroughput:simu5g_rateavg 1237.7969946417356
scalar SingleCell_Standalone.server.app[1] voipGeneratedThroughput:simu5g_rateavg 965.4284863217166
scalar SingleCell_Standalone.server.app[2] voipGeneratedThroughput:simu5g_rateavg 1381.7534086449098
scalar SingleCell_Standalone.server.app[3] voipGeneratedThroughput:simu5g_rateavg 1606.7763690900124
scalar SingleCell_Standalone.server.app[4] voipGeneratedThroughput:simu5g_rateavg 1276.199075767536
scalar SingleCell_Standalone.server.app[5] voipGeneratedThroughput:simu5g_rateavg 887.24004363113602
scalar SingleCell_Standalone.server.app[6] voipGeneratedThroughput:simu5g_rateavg 1137.92780958703
scalar SingleCell_Standalone.server.app[7] voipGeneratedThroughput:simu5g_rateavg 889.2703397786089
scalar SingleCell_Standalone.router.lo[0].lo rcvdPkFromHl:count 0
scalar SingleCell_Standalone.router.lo[0].lo rcvdPkFromHl:sum(packetBytes) 0
scalar SingleCell_Standalone.router.lo[0].lo passedUpPk:count 0
scalar SingleCell_Standalone.router.lo[0].lo passedUpPk:sum(packetBytes) 0
scalar SingleCell_Standalone.router.lo[0] packetDropInterfaceDown:count 0
scalar SingleCell_Standalone.router.lo[0] packetDropInterfaceDown:sum(packetBytes) 0
scalar SingleCell_Standalone.router.lo[0] packetDropNoCarrier:count 0
scalar SingleCell_Standalone.router.lo[0] packetDropNoCarrier:sum(packetBytes) 0
scalar SingleCell_Standalone.router.ppp[0].queue queueLength:last 0
scalar SingleCell_Standalone.router.ppp[0].queue queueLength:max 0
scalar SingleCell_Standalone.router.ppp[0].queue queueLength:timeavg 0
scalar SingleCell_Standalone.router.ppp[0].queue queueBitLength:last 0
scalar SingleCell_Standalone.router.ppp[0].queue queueBitLength:max 0
scalar SingleCell_Standalone.router.ppp[0].queue queueBitLength:timeavg 0
scalar SingleCell_Standalone.router.ppp[0].queue outgoingPackets:count 0
scalar SingleCell_Standalone.router.ppp[0].queue outgoingPacketLengths:sum 0
scalar SingleCell_Standalone.router.ppp[0].queue incomingPackets:count 0
scalar SingleCell_Standalone.router.ppp[0].queue incomingPacketLengths:sum 0
scalar SingleCell_Standalone.router.ppp[0].queue droppedPacketsQueueOverflow:count 0
scalar SingleCell_Standalone.router.ppp[0].queue droppedPacketLengthsQueueOverflow:sum 0
scalar SingleCell_Standalone.router.ppp[0].ppp transmissionState:timeavg 0
scalar SingleCell_Standalone.router.ppp[0].ppp rxPkOk:count 5063
scalar SingleCell_Standalone.router.ppp[0].ppp rxPkOk:sum(packetBytes) 379725
scalar SingleCell_Standalone.router.ppp[0].ppp txPk:count 0
scalar SingleCell_Standalone.router.ppp[0].ppp txPk:sum(packetBytes) 0
scalar SingleCell_Standalone.router.ppp[0].ppp rcvdPkFromHl:count 0
scalar SingleCell_Standalone.router.ppp[0].ppp rcvdPkFromHl:sum(packetBytes) 0
scalar SingleCell_Standalone.router.ppp[0].ppp passedUpPk:count 5063
scalar SingleCell_Standalone.router.ppp[0].ppp passedUpPk:sum(packetBytes) 344284
scalar SingleCell_Standalone.router.ppp[0].ppp packetDropIncorrectlyReceived:count 0
scalar SingleCell_Standalone.router.ppp[0].ppp packetDropIncorrectlyReceived:sum(packetBytes) 0
scalar SingleCell_Standalone.router.ppp[0].ppp packetDropInterfaceDown:count 0
scalar SingleCell_Standalone.router.ppp[0].ppp packetDropInterfaceDown:sum(packetBytes) 0
scalar SingleCell_Standalone.router.ppp[0] packetDropInterfaceDown:count 0
scalar SingleCell_Standalone.router.ppp[0] packetDropInterfaceDown:sum(packetBytes) 0
scalar SingleCell_Standalone.router.ppp[0] packetDropNoCarrier:count 0
scalar SingleCell_Standalone.router.ppp[0] packetDropNoCarrier:sum(packetBytes) 0
scalar SingleCell_Standalone.router.ppp[1].queue queueLength:last 0
scalar SingleCell_Standalone.router.ppp[1].queue queueLength:max 0
scalar SingleCell_Standalone.router.ppp[1].queue queueLength:timeavg 0
scalar SingleCell_Standalone.router.ppp[1].queue queueBitLength:last 0
scalar SingleCell_Standalone.router.ppp[1].queue queueBitLength:max 0
scalar SingleCell_Standalone.router.ppp[1].queue queueBitLength:timeavg 0
scalar SingleCell_Standalone.router.ppp[1].queue outgoingPackets:count 5063
scalar SingleCell_Standalone.router.ppp[1].queue outgoingPacketLengths:sum 2754272
scalar SingleCell_Standalone.router.ppp[1].queue incomingPackets:count 5063
scalar SingleCell_Standalone.router.ppp[1].queue incomingPacketLengths:sum 2754272
scalar SingleCell_Standalone.router.ppp[1].queue droppedPacketsQueueOverflow:count 0
scalar SingleCell_Standalone.router.ppp[1].queue droppedPacketLengthsQueueOverflow:sum 0
scalar SingleCell_Standalone.router.ppp[1].ppp transmissionState:timeavg 1.5189000000000606e-05
scalar SingleCell_Standalone.router.ppp[1].ppp rxPkOk:count 0
scalar SingleCell_Standalone.router.ppp[1].ppp rxPkOk:sum(packetBytes) 0
scalar SingleCell_Standalone.router.ppp[1].ppp txPk:count 5063
scalar SingleCell_Standalone.router.ppp[1].ppp txPk:sum(packetBytes) 379725
scalar SingleCell_Standalone.router.ppp[1].ppp rcvdPkFromHl:count 5063
scalar SingleCell_Standalone.router.ppp[1].ppp rcvdPkFromHl:sum(packetBytes) 344284
scalar SingleCell_Standalone.router.ppp[1].ppp passedUpPk:count 0
scalar SingleCell_Standalone.router.ppp[1].ppp passedUpPk:sum(packetBytes) 0
scalar SingleCell_Standalone.router.ppp[1].ppp packetDropIncorrectlyReceived:count 0
scalar SingleCell_Standalone.router.ppp[1].ppp packetDropIncorrectlyReceived:sum(packetBytes) 0
scalar SingleCell_Standalone.router.ppp[1].ppp packetDropInterfaceDown:count 0
scalar SingleCell_Standalone.router.ppp[1].ppp packetDropInterfaceDown:sum(packetBytes) 0
scalar SingleCell_Standalone.router.ppp[1] packetDropInterfaceDown:count 0
scalar SingleCell_Standalone.router.ppp[1] packetDropInterfaceDown:sum(packetBytes) 0
scalar SingleCell_Standalone.router.ppp[1] packetDropNoCarrier:count 0
scalar SingleCell_Standalone.router.ppp[1] packetDropNoCarrier:sum(packetBytes) 0
scalar SingleCell_Standalone.router.ipv4.ip packetDropAddressResolutionFailed:count 0
scalar SingleCell_Standalone.router.ipv4.ip packetDropAddressResolutionFailed:sum(packetBytes) 0
scalar SingleCell_Standalone.router.ipv4.ip packetDropHopLimitReached:count 0
scalar SingleCell_Standalone.router.ipv4.ip packetDropHopLimitReached:sum(packetBytes) 0
scalar SingleCell_Standalone.router.ipv4.ip packetDropForwardingDisabled:count 0
scalar SingleCell_Standalone.router.ipv4.ip packetDropForwardingDisabled:sum(packetBytes) 0
scalar SingleCell_Standalone.router.ipv4.ip packetDropNoInterfaceFound:count 0
scalar SingleCell_Standalone.router.ipv4.ip packetDropNoInterfaceFound:sum(packetBytes) 0
scalar SingleCell_Standalone.router.ipv4.ip packetDropNoRouteFound:count 0
scalar SingleCell_Standalone.router.ipv4.ip packetDropNoRouteFound:sum(packetBytes) 0
scalar SingleCell_Standalone.router.ipv4.ip packetDropUndefined:count 0
scalar SingleCell_Standalone.router.ipv4.ip packetDropUndefined:sum(packetBytes) 0
scalar SingleCell_Standalone.router.ipv4.arp arpResolutionFailed:count 0
scalar SingleCell_Standalone.router.ipv4.arp arpResolutionCompleted:count 0
scalar SingleCell_Standalone.router.ipv4.arp arpResolutionInitiated:count 0
scalar SingleCell_Standalone.router.ipv4.arp arpReplySent:count 0
scalar SingleCell_Standalone.router.ipv4.arp arpReplySent:sum(packetBytes) 0
scalar SingleCell_Standalone.router.ipv4.arp arpRequestSent:count 0
scalar SingleCell_Standalone.router.ipv4.arp arpRequestSent:sum(packetBytes) 0
scalar SingleCell_Standalone.upf.lo[0].lo rcvdPkFromHl:count 0
scalar SingleCell_Standalone.upf.lo[0].lo rcvdPkFromHl:sum(packetBytes) 0
scalar SingleCell_Standalone.upf.lo[0].lo passedUpPk:count 0
scalar SingleCell_Standalone.upf.lo[0].lo passedUpPk:sum(packetBytes) 0
scalar SingleCell_Standalone.upf.lo[0] packetDropInterfaceDown:count 0
scalar SingleCell_Standalone.upf.lo[0] packetDropInterfaceDown:sum(packetBytes) 0
scalar SingleCell_Standalone.upf.lo[0] packetDropNoCarrier:count 0
scalar SingleCell_Standalone.upf.lo[0] packetDropNoCarrier:sum(packetBytes) 0
scalar SingleCell_Standalone.upf.ppp[0].queue queueLength:last 0
scalar SingleCell_Standalone.upf.ppp[0].queue queueLength:max 0
scalar SingleCell_Standalone.upf.ppp[0].queue queueLength:timeavg 0
scalar SingleCell_Standalone.upf.ppp[0].queue queueBitLength:last 0
scalar SingleCell_Standalone.upf.ppp[0].queue queueBitLength:max 0
scalar SingleCell_Standalone.upf.ppp[0].queue queueBitLength:timeavg 0
scalar SingleCell_Standalone.upf.ppp[0].queue outgoingPackets:count 5063
scalar SingleCell_Standalone.upf.ppp[0].queue outgoingPacketLengths:sum 4212416
scalar SingleCell_Standalone.upf.ppp[0].queue incomingPackets:count 5063
scalar SingleCell_Standalone.upf.ppp[0].queue incomingPacketLengths:sum 4212416
scalar SingleCell_Standalone.upf.ppp[0].queue droppedPacketsQueueOverflow:count 0
scalar SingleCell_Standalone.upf.ppp[0].queue droppedPacketLengthsQueueOverflow:sum 0
scalar SingleCell_Standalone.upf.ppp[0].ppp transmissionState:timeavg 2.2479719999997936e-05
scalar SingleCell_Standalone.upf.ppp[0].ppp rxPkOk:count 0
scalar SingleCell_Standalone.upf.ppp[0].ppp rxPkOk:sum(packetBytes) 0
scalar SingleCell_Standalone.upf.ppp[0].ppp txPk:count 5063
scalar SingleCell_Standalone.upf.ppp[0].ppp txPk:sum(packetBytes) 561993
scalar SingleCell_Standalone.upf.ppp[0].ppp rcvdPkFromHl:count 5063
scalar SingleCell_Standalone.upf.ppp[0].ppp rcvdPkFromHl:sum(packetBytes) 526552
scalar SingleCell_Standalone.upf.ppp[0].ppp passedUpPk:count 0
scalar SingleCell_Standalone.upf.ppp[0].ppp passedUpPk:sum(packetBytes) 0
scalar SingleCell_Standalone.upf.ppp[0].ppp packetDropIncorrectlyReceived:count 0
scalar SingleCell_Standalone.upf.ppp[0].ppp packetDropIncorrectlyReceived:sum(packetBytes) 0
scalar SingleCell_Standalone.upf.ppp[0].ppp packetDropInterfaceDown:count 0
scalar SingleCell_Standalone.upf.ppp[0].ppp packetDropInterfaceDown:sum(packetBytes) 0
scalar SingleCell_Standalone.upf.ppp[0] packetDropInterfaceDown:count 0
scalar SingleCell_Standalone.upf.ppp[0] packetDropInterfaceDown:sum(packetBytes) 0
scalar SingleCell_Standalone.upf.ppp[0] packetDropNoCarrier:count 0
scalar SingleCell_Standalone.upf.ppp[0] packetDropNoCarrier:sum(packetBytes) 0
scalar SingleCell_Standalone.upf.ipv4.ip packetDropAddressResolutionFailed:count 0
scalar SingleCell_Standalone.upf.ipv4.ip packetDropAddressResolutionFailed:sum(packetBytes) 0
scalar SingleCell_Standalone.upf.ipv4.ip packetDropHopLimitReached:count 0
scalar SingleCell_Standalone.upf.ipv4.ip packetDropHopLimitReached:sum(packetBytes) 0
scalar SingleCell_Standalone.upf.ipv4.ip packetDropForwardingDisabled:count 0
scalar SingleCell_Standalone.upf.ipv4.ip packetDropForwardingDisabled:sum(packetBytes) 0
scalar SingleCell_Standalone.upf.ipv4.ip packetDropNoInterfaceFound:count 0
scalar SingleCell_Standalone.upf.ipv4.ip packetDropNoInterfaceFound:sum(packetBytes) 0
scalar SingleCell_Standalone.upf.ipv4.ip packetDropNoRouteFound:count 0
scalar SingleCell_Standalone.upf.ipv4.ip packetDropNoRouteFound:sum(packetBytes) 0
scalar SingleCell_Standalone.upf.ipv4.ip packetDropUndefined:count 0
scalar SingleCell_Standalone.upf.ipv4.ip packetDropUndefined:sum(packetBytes) 0
scalar SingleCell_Standalone.upf.ipv4.arp arpResolutionFailed:count 0
scalar SingleCell_Standalone.upf.ipv4.arp arpResolutionCompleted:count 0
scalar SingleCell_Standalone.upf.ipv4.arp arpResolutionInitiated:count 0
scalar SingleCell_Standalone.upf.ipv4.arp arpReplySent:count 0
scalar SingleCell_Standalone.upf.ipv4.arp arpReplySent:sum(packetBytes) 0
scalar SingleCell_Standalone.upf.ipv4.arp arpRequestSent:count 0
scalar SingleCell_Standalone.upf.ipv4.arp arpRequestSent:sum(packetBytes) 0
scalar SingleCell_Standalone.upf.udp packetReceived:count 0
scalar SingleCell_Standalone.upf.udp packetReceived:sum(packetBytes) 0
scalar SingleCell_Standalone.upf.udp packetSent:count 5063
scalar SingleCell_Standalone.upf.udp packetSent:sum(packetBytes) 425292
scalar SingleCell_Standalone.upf.udp passedUpPk:count 0
scalar SingleCell_Standalone.upf.udp droppedPkWrongPort:count 0
scalar SingleCell_Standalone.upf.udp droppedPkBadChecksum:count 0
scalar SingleCell_Standalone.upf.dnPpp.queue queueLength:last 0
scalar SingleCell_Standalone.upf.dnPpp.queue queueLength:max 0
scalar SingleCell_Standalone.upf.dnPpp.queue queueLength:timeavg 0
scalar SingleCell_Standalone.upf.dnPpp.queue queueBitLength:last 0
scalar SingleCell_Standalone.upf.dnPpp.queue queueBitLength:max 0
scalar SingleCell_Standalone.upf.dnPpp.queue queueBitLength:timeavg 0
scalar SingleCell_Standalone.upf.dnPpp.queue outgoingPackets:count 0
scalar SingleCell_Standalone.upf.dnPpp.queue outgoingPacketLengths:sum 0
scalar SingleCell_Standalone.upf.dnPpp.queue incomingPackets:count 0
scalar SingleCell_Standalone.upf.dnPpp.queue incomingPacketLengths:sum 0
scalar SingleCell_Standalone.upf.dnPpp.queue droppedPacketsQueueOverflow:count 0
scalar SingleCell_Standalone.upf.dnPpp.queue droppedPacketLengthsQueueOverflow:sum 0
scalar SingleCell_Standalone.upf.dnPpp.ppp transmissionState:timeavg 0
scalar SingleCell_Standalone.upf.dnPpp.ppp rxPkOk:count 5063
scalar SingleCell_Standalone.upf.dnPpp.ppp rxPkOk:sum(packetBytes) 379725
scalar SingleCell_Standalone.upf.dnPpp.ppp txPk:count 0
scalar SingleCell_Standalone.upf.dnPpp.ppp txPk:sum(packetBytes) 0
scalar SingleCell_Standalone.upf.dnPpp.ppp rcvdPkFromHl:count 0
scalar SingleCell_Standalone.upf.dnPpp.ppp rcvdPkFromHl:sum(packetBytes) 0
scalar SingleCell_Standalone.upf.dnPpp.ppp passedUpPk:count 5063
scalar SingleCell_Standalone.upf.dnPpp.ppp passedUpPk:sum(packetBytes) 344284
scalar SingleCell_Standalone.upf.dnPpp.ppp packetDropIncorrectlyReceived:count 0
scalar SingleCell_Standalone.upf.dnPpp.ppp packetDropIncorrectlyReceived:sum(packetBytes) 0
scalar SingleCell_Standalone.upf.dnPpp.ppp packetDropInterfaceDown:count 0
scalar SingleCell_Standalone.upf.dnPpp.ppp packetDropInterfaceDown:sum(packetBytes) 0
scalar SingleCell_Standalone.upf.dnPpp packetDropInterfaceDown:count 0
scalar SingleCell_Standalone.upf.dnPpp packetDropInterfaceDown:sum(packetBytes) 0
scalar SingleCell_Standalone.upf.dnPpp packetDropNoCarrier:count 0
scalar SingleCell_Standalone.upf.dnPpp packetDropNoCarrier:sum(packetBytes) 0
scalar SingleCell_Standalone.iUpf.lo[0].lo rcvdPkFromHl:count 0
scalar SingleCell_Standalone.iUpf.lo[0].lo rcvdPkFromHl:sum(packetBytes) 0
scalar SingleCell_Standalone.iUpf.lo[0].lo passedUpPk:count 0
scalar SingleCell_Standalone.iUpf.lo[0].lo passedUpPk:sum(packetBytes) 0
scalar SingleCell_Standalone.iUpf.lo[0] packetDropInterfaceDown:count 0
scalar SingleCell_Standalone.iUpf.lo[0] packetDropInterfaceDown:sum(packetBytes) 0
scalar SingleCell_Standalone.iUpf.lo[0] packetDropNoCarrier:count 0
scalar SingleCell_Standalone.iUpf.lo[0] packetDropNoCarrier:sum(packetBytes) 0
scalar SingleCell_Standalone.iUpf.ppp[0].queue queueLength:last 0
scalar SingleCell_Standalone.iUpf.ppp[0].queue queueLength:max 0
scalar SingleCell_Standalone.iUpf.ppp[0].queue queueLength:timeavg 0
scalar SingleCell_Standalone.iUpf.ppp[0].queue queueBitLength:last 0
scalar SingleCell_Standalone.iUpf.ppp[0].queue queueBitLength:max 0
scalar SingleCell_Standalone.iUpf.ppp[0].queue queueBitLength:timeavg 0
scalar SingleCell_Standalone.iUpf.ppp[0].queue outgoingPackets:count 0
scalar SingleCell_Standalone.iUpf.ppp[0].queue outgoingPacketLengths:sum 0
scalar SingleCell_Standalone.iUpf.ppp[0].queue incomingPackets:count 0
scalar SingleCell_Standalone.iUpf.ppp[0].queue incomingPacketLengths:sum 0
scalar SingleCell_Standalone.iUpf.ppp[0].queue droppedPacketsQueueOverflow:count 0
scalar SingleCell_Standalone.iUpf.ppp[0].queue droppedPacketLengthsQueueOverflow:sum 0
scalar SingleCell_Standalone.iUpf.ppp[0].ppp transmissionState:timeavg 0
scalar SingleCell_Standalone.iUpf.ppp[0].ppp rxPkOk:count 5063
scalar SingleCell_Standalone.iUpf.ppp[0].ppp rxPkOk:sum(packetBytes) 561993
scalar SingleCell_Standalone.iUpf.ppp[0].ppp txPk:count 0
scalar SingleCell_Standalone.iUpf.ppp[0].ppp txPk:sum(packetBytes) 0
scalar SingleCell_Standalone.iUpf.ppp[0].ppp rcvdPkFromHl:count 0
scalar SingleCell_Standalone.iUpf.ppp[0].ppp rcvdPkFromHl:sum(packetBytes) 0
scalar SingleCell_Standalone.iUpf.ppp[0].ppp passedUpPk:count 5063
scalar SingleCell_Standalone.iUpf.ppp[0].ppp passedUpPk:sum(packetBytes) 526552
scalar SingleCell_Standalone.iUpf.ppp[0].ppp packetDropIncorrectlyReceived:count 0
scalar SingleCell_Standalone.iUpf.ppp[0].ppp packetDropIncorrectlyReceived:sum(packetBytes) 0
scalar SingleCell_Standalone.iUpf.ppp[0].ppp packetDropInterfaceDown:count 0
scalar SingleCell_Standalone.iUpf.ppp[0].ppp packetDropInterfaceDown:sum(packetBytes) 0
scalar SingleCell_Standalone.iUpf.ppp[0] packetDropInterfaceDown:count 0
scalar SingleCell_Standalone.iUpf.ppp[0] packetDropInterfaceDown:sum(packetBytes) 0
scalar SingleCell_Standalone.iUpf.ppp[0] packetDropNoCarrier:count 0
scalar SingleCell_Standalone.iUpf.ppp[0] packetDropNoCarrier:sum(packetBytes) 0
scalar SingleCell_Standalone.iUpf.ppp[1].queue queueLength:last 0
scalar SingleCell_Standalone.iUpf.ppp[1].queue queueLength:max 0
scalar SingleCell_Standalone.iUpf.ppp[1].queue queueLength:timeavg 0
scalar SingleCell_Standalone.iUpf.ppp[1].queue queueBitLength:last 0
scalar SingleCell_Standalone.iUpf.ppp[1].queue queueBitLength:max 0
scalar SingleCell_Standalone.iUpf.ppp[1].queue queueBitLength:timeavg 0
scalar SingleCell_Standalone.iUpf.ppp[1].queue outgoingPackets:count 5063
scalar SingleCell_Standalone.iUpf.ppp[1].queue outgoingPacketLengths:sum 4212416
scalar SingleCell_Standalone.iUpf.ppp[1].queue incomingPackets:count 5063
scalar SingleCell_Standalone.iUpf.ppp[1].queue incomingPacketLengths:sum 4212416
scalar SingleCell_Standalone.iUpf.ppp[1].queue droppedPacketsQueueOverflow:count 0
scalar SingleCell_Standalone.iUpf.ppp[1].queue droppedPacketLengthsQueueOverflow:sum 0
scalar SingleCell_Standalone.iUpf.ppp[1].ppp transmissionState:timeavg 2.2479719999997936e-05
scalar SingleCell_Standalone.iUpf.ppp[1].ppp rxPkOk:count 0
scalar SingleCell_Standalone.iUpf.ppp[1].ppp rxPkOk:sum(packetBytes) 0
scalar SingleCell_Standalone.iUpf.ppp[1].ppp txPk:count 5063
scalar SingleCell_Standalone.iUpf.ppp[1].ppp txPk:sum(packetBytes) 561993
scalar SingleCell_Standalone.iUpf.ppp[1].ppp rcvdPkFromHl:count 5063
scalar SingleCell_Standalone.iUpf.ppp[1].ppp rcvdPkFromHl:sum(packetBytes) 526552
scalar SingleCell_Standalone.iUpf.ppp[1].ppp passedUpPk:count 0
scalar SingleCell_Standalone.iUpf.ppp[1].ppp passedUpPk:sum(packetBytes) 0
scalar SingleCell_Standalone.iUpf.ppp[1].ppp packetDropIncorrectlyReceived:count 0
scalar SingleCell_Standalone.iUpf.ppp[1].ppp packetDropIncorrectlyReceived:sum(packetBytes) 0
scalar SingleCell_Standalone.iUpf.ppp[1].ppp packetDropInterfaceDown:count 0
scalar SingleCell_Standalone.iUpf.ppp[1].ppp packetDropInterfaceDown:sum(packetBytes) 0
scalar SingleCell_Standalone.iUpf.ppp[1] packetDropInterfaceDown:count 0
scalar SingleCell_Standalone.iUpf.ppp[1] packetDropInterfaceDown:sum(packetBytes) 0
scalar SingleCell_Standalone.iUpf.ppp[1] packetDropNoCarrier:count 0
scalar SingleCell_Standalone.iUpf.ppp[1] packetDropNoCarrier:sum(packetBytes) 0
scalar SingleCell_Standalone.iUpf.ipv4.ip packetDropAddressResolutionFailed:count 0
scalar SingleCell_Standalone.iUpf.ipv4.ip packetDropAddressResolutionFailed:sum(packetBytes) 0
scalar SingleCell_Standalone.iUpf.ipv4.ip packetDropHopLimitReached:count 0
scalar SingleCell_Standalone.iUpf.ipv4.ip packetDropHopLimitReached:sum(packetBytes) 0
scalar SingleCell_Standalone.iUpf.ipv4.ip packetDropForwardingDisabled:count 0
scalar SingleCell_Standalone.iUpf.ipv4.ip packetDropForwardingDisabled:sum(packetBytes) 0
scalar SingleCell_Standalone.iUpf.ipv4.ip packetDropNoInterfaceFound:count 0
scalar SingleCell_Standalone.iUpf.ipv4.ip packetDropNoInterfaceFound:sum(packetBytes) 0
scalar SingleCell_Standalone.iUpf.ipv4.ip packetDropNoRouteFound:count 0
scalar SingleCell_Standalone.iUpf.ipv4.ip packetDropNoRouteFound:sum(packetBytes) 0
scalar SingleCell_Standalone.iUpf.ipv4.ip packetDropUndefined:count 0
scalar SingleCell_Standalone.iUpf.ipv4.ip packetDropUndefined:sum(packetBytes) 0
scalar SingleCell_Standalone.iUpf.ipv4.arp arpResolutionFailed:count 0
scalar SingleCell_Standalone.iUpf.ipv4.arp arpResolutionCompleted:count 0
scalar SingleCell_Standalone.iUpf.ipv4.arp arpResolutionInitiated:count 0
scalar SingleCell_Standalone.iUpf.ipv4.arp arpReplySent:count 0
scalar SingleCell_Standalone.iUpf.ipv4.arp arpReplySent:sum(packetBytes) 0
scalar SingleCell_Standalone.iUpf.ipv4.arp arpRequestSent:count 0
scalar SingleCell_Standalone.iUpf.ipv4.arp arpRequestSent:sum(packetBytes) 0
scalar SingleCell_Standalone.iUpf.udp packetReceived:count 0
scalar SingleCell_Standalone.iUpf.udp packetReceived:sum(packetBytes) 0
scalar SingleCell_Standalone.iUpf.udp packetSent:count 0
scalar SingleCell_Standalone.iUpf.udp packetSent:sum(packetBytes) 0
scalar SingleCell_Standalone.iUpf.udp passedUpPk:count 0
scalar SingleCell_Standalone.iUpf.udp droppedPkWrongPort:count 0
scalar SingleCell_Standalone.iUpf.udp droppedPkBadChecksum:count 0
scalar SingleCell_Standalone.iUpf.dnPpp.queue queueLength:last 0
scalar SingleCell_Standalone.iUpf.dnPpp.queue queueLength:max 0
scalar SingleCell_Standalone.iUpf.dnPpp.queue queueLength:timeavg 0
scalar SingleCell_Standalone.iUpf.dnPpp.queue queueBitLength:last 0
scalar SingleCell_Standalone.iUpf.dnPpp.queue queueBitLength:max 0
scalar SingleCell_Standalone.iUpf.dnPpp.queue queueBitLength:timeavg 0
scalar SingleCell_Standalone.iUpf.dnPpp.queue outgoingPackets:count 0
scalar SingleCell_Standalone.iUpf.dnPpp.queue outgoingPacketLengths:sum 0
scalar SingleCell_Standalone.iUpf.dnPpp.queue incomingPackets:count 0
scalar SingleCell_Standalone.iUpf.dnPpp.queue incomingPacketLengths:sum 0
scalar SingleCell_Standalone.iUpf.dnPpp.queue droppedPacketsQueueOverflow:count 0
scalar SingleCell_Standalone.iUpf.dnPpp.queue droppedPacketLengthsQueueOverflow:sum 0
scalar SingleCell_Standalone.iUpf.dnPpp.ppp transmissionState:timeavg 0
scalar SingleCell_Standalone.iUpf.dnPpp.ppp rxPkOk:count 0
scalar SingleCell_Standalone.iUpf.dnPpp.ppp rxPkOk:sum(packetBytes) 0
scalar SingleCell_Standalone.iUpf.dnPpp.ppp txPk:count 0
scalar SingleCell_Standalone.iUpf.dnPpp.ppp txPk:sum(packetBytes) 0
scalar SingleCell_Standalone.iUpf.dnPpp.ppp rcvdPkFromHl:count 0
scalar SingleCell_Standalone.iUpf.dnPpp.ppp rcvdPkFromHl:sum(packetBytes) 0
scalar SingleCell_Standalone.iUpf.dnPpp.ppp passedUpPk:count 0
scalar SingleCell_Standalone.iUpf.dnPpp.ppp passedUpPk:sum(packetBytes) 0
scalar SingleCell_Standalone.iUpf.dnPpp.ppp packetDropIncorrectlyReceived:count 0
scalar SingleCell_Standalone.iUpf.dnPpp.ppp packetDropIncorrectlyReceived:sum(packetBytes) 0
scalar SingleCell_Standalone.iUpf.dnPpp.ppp packetDropInterfaceDown:count 0
scalar SingleCell_Standalone.iUpf.dnPpp.ppp packetDropInterfaceDown:sum(packetBytes) 0
scalar SingleCell_Standalone.iUpf.dnPpp packetDropInterfaceDown:count 0
scalar SingleCell_Standalone.iUpf.dnPpp packetDropInterfaceDown:sum(packetBytes) 0
scalar SingleCell_Standalone.iUpf.dnPpp packetDropNoCarrier:count 0
scalar SingleCell_Standalone.iUpf.dnPpp packetDropNoCarrier:sum(packetBytes) 0
scalar SingleCell_Standalone.gnb.cellularNic.rlcMux rlcCellThroughputD2D:simu5g_rateavg -nan
scalar SingleCell_Standalone.gnb.cellularNic.rlcMux rlcPduThroughputD2D:simu5g_rateavg -nan
scalar SingleCell_Standalone.gnb.cellularNic.rlcMux rlcPduDelayD2D:mean -nan
scalar SingleCell_Standalone.gnb.cellularNic.rlcMux rlcThroughputD2D:simu5g_rateavg -nan
scalar SingleCell_Standalone.gnb.cellularNic.rlcMux rlcDelayD2D:mean -nan
scalar SingleCell_Standalone.gnb.cellularNic.rlcMux rlcCellThroughputUl:simu5g_rateavg -nan
scalar SingleCell_Standalone.gnb.cellularNic.rlcMux rlcCellThroughputDl:simu5g_rateavg 16775.902091681903
scalar SingleCell_Standalone.gnb.cellularNic.rlcMux rlcPduThroughputUl:simu5g_rateavg -nan
scalar SingleCell_Standalone.gnb.cellularNic.rlcMux rlcPduThroughputDl:simu5g_rateavg -nan
scalar SingleCell_Standalone.gnb.cellularNic.rlcMux rlcPduDelayUl:mean -nan
scalar SingleCell_Standalone.gnb.cellularNic.rlcMux rlcPduDelayDl:mean -nan
scalar SingleCell_Standalone.gnb.cellularNic.rlcMux rlcThroughputUl:simu5g_rateavg -nan
scalar SingleCell_Standalone.gnb.cellularNic.rlcMux rlcThroughputDl:simu5g_rateavg -nan
scalar SingleCell_Standalone.gnb.cellularNic.rlcMux rlcDelayUl:mean -nan
scalar SingleCell_Standalone.gnb.cellularNic.rlcMux rlcDelayDl:mean -nan
scalar SingleCell_Standalone.gnb.cellularNic.rlcMux sentPacketToLowerLayer:count 9612
scalar SingleCell_Standalone.gnb.cellularNic.rlcMux sentPacketToLowerLayer:sum(packetBytes) 717918
scalar SingleCell_Standalone.gnb.cellularNic.rlcMux receivedPacketFromLowerLayer:count 0
scalar SingleCell_Standalone.gnb.cellularNic.rlcMux receivedPacketFromLowerLayer:sum(packetBytes) 0
scalar SingleCell_Standalone.gnb.cellularNic.mac avgServedBlocksUl:mean 0
scalar SingleCell_Standalone.gnb.cellularNic.mac avgServedBlocksDl:mean 0.24095
scalar SingleCell_Standalone.gnb.cellularNic.mac macCellPacketLossD2D:mean -nan
scalar SingleCell_Standalone.gnb.cellularNic.mac macCellThroughputD2D:simu5g_rateavg -nan
scalar SingleCell_Standalone.gnb.cellularNic.mac harqTxAttemptsUl:mean -nan
scalar SingleCell_Standalone.gnb.cellularNic.mac harqTxAttemptsDl:mean -nan
scalar SingleCell_Standalone.gnb.cellularNic.mac harqErrorRate_4th_Ul:mean -nan
scalar SingleCell_Standalone.gnb.cellularNic.mac harqErrorRate_4th_Dl:mean -nan
scalar SingleCell_Standalone.gnb.cellularNic.mac harqErrorRate_3rd_Ul:mean -nan
scalar SingleCell_Standalone.gnb.cellularNic.mac harqErrorRate_3rd_Dl:mean -nan
scalar SingleCell_Standalone.gnb.cellularNic.mac harqErrorRate_2nd_Ul:mean -nan
scalar SingleCell_Standalone.gnb.cellularNic.mac harqErrorRate_2nd_Dl:mean -nan
scalar SingleCell_Standalone.gnb.cellularNic.mac harqErrorRate_1st_Ul:mean -nan
scalar SingleCell_Standalone.gnb.cellularNic.mac harqErrorRate_1st_Dl:mean -nan
scalar SingleCell_Standalone.gnb.cellularNic.mac harqErrorRateUl:mean -nan
scalar SingleCell_Standalone.gnb.cellularNic.mac harqErrorRateDl:mean -nan
scalar SingleCell_Standalone.gnb.cellularNic.mac macCellPacketLossUl:mean -nan
scalar SingleCell_Standalone.gnb.cellularNic.mac macCellPacketLossDl:mean 0
scalar SingleCell_Standalone.gnb.cellularNic.mac macPacketLossUl:mean -nan
scalar SingleCell_Standalone.gnb.cellularNic.mac macPacketLossDl:mean -nan
scalar SingleCell_Standalone.gnb.cellularNic.mac macThroughputUl:simu5g_rateavg -nan
scalar SingleCell_Standalone.gnb.cellularNic.mac macThroughputDl:simu5g_rateavg -nan
scalar SingleCell_Standalone.gnb.cellularNic.mac macDelayUl:mean -nan
scalar SingleCell_Standalone.gnb.cellularNic.mac macDelayDl:mean -nan
scalar SingleCell_Standalone.gnb.cellularNic.mac macCellThroughputUl:simu5g_rateavg -nan
scalar SingleCell_Standalone.gnb.cellularNic.mac macCellThroughputDl:simu5g_rateavg 17585.565738667487
scalar SingleCell_Standalone.gnb.cellularNic.mac sentPacketToLowerLayer:count 4549
scalar SingleCell_Standalone.gnb.cellularNic.mac sentPacketToLowerLayer:sum(packetBytes) 372606
scalar SingleCell_Standalone.gnb.cellularNic.mac sentPacketToUpperLayer:count 4549
scalar SingleCell_Standalone.gnb.cellularNic.mac sentPacketToUpperLayer:sum(packetBytes) 4549
scalar SingleCell_Standalone.gnb.cellularNic.mac receivedPacketFromLowerLayer:count 11217
scalar SingleCell_Standalone.gnb.cellularNic.mac receivedPacketFromLowerLayer:sum(packetBytes) 11217
scalar SingleCell_Standalone.gnb.cellularNic.mac receivedPacketFromUpperLayer:count 9612
scalar SingleCell_Standalone.gnb.cellularNic.mac receivedPacketFromUpperLayer:sum(packetBytes) 717918
scalar SingleCell_Standalone.gnb.cellularNic.mac macBufferOverFlowD2D:mean -nan
scalar SingleCell_Standalone.gnb.cellularNic.mac macBufferOverFlowUl:mean -nan
scalar SingleCell_Standalone.gnb.cellularNic.mac macBufferOverFlowDl:mean -nan
scalar SingleCell_Standalone.gnb.cellularNic.channelModel[0] measuredSinrUl:mean -nan
scalar SingleCell_Standalone.gnb.cellularNic.channelModel[0] measuredSinrDl:mean -nan
scalar SingleCell_Standalone.gnb.cellularNic.channelModel[0] rcvdSinrD2D:mean -nan
scalar SingleCell_Standalone.gnb.cellularNic.channelModel[0] rcvdSinrUl:mean -nan
scalar SingleCell_Standalone.gnb.cellularNic.channelModel[0] rcvdSinrDl:mean -nan
scalar SingleCell_Standalone.gnb.cellularNic packetDropInterfaceDown:count 0
scalar SingleCell_Standalone.gnb.cellularNic packetDropInterfaceDown:sum(packetBytes) 0
scalar SingleCell_Standalone.gnb.cellularNic packetDropNoCarrier:count 0
scalar SingleCell_Standalone.gnb.cellularNic packetDropNoCarrier:sum(packetBytes) 0
scalar SingleCell_Standalone.gnb.pppIf.queue queueLength:last 0
scalar SingleCell_Standalone.gnb.pppIf.queue queueLength:max 0
scalar SingleCell_Standalone.gnb.pppIf.queue queueLength:timeavg 0
scalar SingleCell_Standalone.gnb.pppIf.queue queueBitLength:last 0
scalar SingleCell_Standalone.gnb.pppIf.queue queueBitLength:max 0
scalar SingleCell_Standalone.gnb.pppIf.queue queueBitLength:timeavg 0
scalar SingleCell_Standalone.gnb.pppIf.queue outgoingPackets:count 0
scalar SingleCell_Standalone.gnb.pppIf.queue outgoingPacketLengths:sum 0
scalar SingleCell_Standalone.gnb.pppIf.queue incomingPackets:count 0
scalar SingleCell_Standalone.gnb.pppIf.queue incomingPacketLengths:sum 0
scalar SingleCell_Standalone.gnb.pppIf.queue droppedPacketsQueueOverflow:count 0
scalar SingleCell_Standalone.gnb.pppIf.queue droppedPacketLengthsQueueOverflow:sum 0
scalar SingleCell_Standalone.gnb.pppIf.ppp transmissionState:timeavg 0
scalar SingleCell_Standalone.gnb.pppIf.ppp rxPkOk:count 5063
scalar SingleCell_Standalone.gnb.pppIf.ppp rxPkOk:sum(packetBytes) 561993
scalar SingleCell_Standalone.gnb.pppIf.ppp txPk:count 0
scalar SingleCell_Standalone.gnb.pppIf.ppp txPk:sum(packetBytes) 0
scalar SingleCell_Standalone.gnb.pppIf.ppp rcvdPkFromHl:count 0
scalar SingleCell_Standalone.gnb.pppIf.ppp rcvdPkFromHl:sum(packetBytes) 0
scalar SingleCell_Standalone.gnb.pppIf.ppp passedUpPk:count 5063
scalar SingleCell_Standalone.gnb.pppIf.ppp passedUpPk:sum(packetBytes) 526552
scalar SingleCell_Standalone.gnb.pppIf.ppp packetDropIncorrectlyReceived:count 0
scalar SingleCell_Standalone.gnb.pppIf.ppp packetDropIncorrectlyReceived:sum(packetBytes) 0
scalar SingleCell_Standalone.gnb.pppIf.ppp packetDropInterfaceDown:count 0
scalar SingleCell_Standalone.gnb.pppIf.ppp packetDropInterfaceDown:sum(packetBytes) 0
scalar SingleCell_Standalone.gnb.pppIf packetDropInterfaceDown:count 0
scalar SingleCell_Standalone.gnb.pppIf packetDropInterfaceDown:sum(packetBytes) 0
scalar SingleCell_Standalone.gnb.pppIf packetDropNoCarrier:count 0
scalar SingleCell_Standalone.gnb.pppIf packetDropNoCarrier:sum(packetBytes) 0
scalar SingleCell_Standalone.gnb.pppMEHostIf.queue queueLength:last 0
scalar SingleCell_Standalone.gnb.pppMEHostIf.queue queueLength:max 0
scalar SingleCell_Standalone.gnb.pppMEHostIf.queue queueLength:timeavg 0
scalar SingleCell_Standalone.gnb.pppMEHostIf.queue queueBitLength:last 0
scalar SingleCell_Standalone.gnb.pppMEHostIf.queue queueBitLength:max 0
scalar SingleCell_Standalone.gnb.pppMEHostIf.queue queueBitLength:timeavg 0
scalar SingleCell_Standalone.gnb.pppMEHostIf.queue outgoingPackets:count 0
scalar SingleCell_Standalone.gnb.pppMEHostIf.queue outgoingPacketLengths:sum 0
scalar SingleCell_Standalone.gnb.pppMEHostIf.queue incomingPackets:count 0
scalar SingleCell_Standalone.gnb.pppMEHostIf.queue incomingPacketLengths:sum 0
scalar SingleCell_Standalone.gnb.pppMEHostIf.queue droppedPacketsQueueOverflow:count 0
scalar SingleCell_Standalone.gnb.pppMEHostIf.queue droppedPacketLengthsQueueOverflow:sum 0
scalar SingleCell_Standalone.gnb.pppMEHostIf.ppp transmissionState:timeavg 0
scalar SingleCell_Standalone.gnb.pppMEHostIf.ppp rxPkOk:count 0
scalar SingleCell_Standalone.gnb.pppMEHostIf.ppp rxPkOk:sum(packetBytes) 0
scalar SingleCell_Standalone.gnb.pppMEHostIf.ppp txPk:count 0
scalar SingleCell_Standalone.gnb.pppMEHostIf.ppp txPk:sum(packetBytes) 0
scalar SingleCell_Standalone.gnb.pppMEHostIf.ppp rcvdPkFromHl:count 0
scalar SingleCell_Standalone.gnb.pppMEHostIf.ppp rcvdPkFromHl:sum(packetBytes) 0
scalar SingleCell_Standalone.gnb.pppMEHostIf.ppp passedUpPk:count 0
scalar SingleCell_Standalone.gnb.pppMEHostIf.ppp passedUpPk:sum(packetBytes) 0
scalar SingleCell_Standalone.gnb.pppMEHostIf.ppp packetDropIncorrectlyReceived:count 0
scalar SingleCell_Standalone.gnb.pppMEHostIf.ppp packetDropIncorrectlyReceived:sum(packetBytes) 0
scalar SingleCell_Standalone.gnb.pppMEHostIf.ppp packetDropInterfaceDown:count 0
scalar SingleCell_Standalone.gnb.pppMEHostIf.ppp packetDropInterfaceDown:sum(packetBytes) 0
scalar SingleCell_Standalone.gnb.pppMEHostIf packetDropInterfaceDown:count 0
scalar SingleCell_Standalone.gnb.pppMEHostIf packetDropInterfaceDown:sum(packetBytes) 0
scalar SingleCell_Standalone.gnb.pppMEHostIf packetDropNoCarrier:count 0
scalar SingleCell_Standalone.gnb.pppMEHostIf packetDropNoCarrier:sum(packetBytes) 0
scalar SingleCell_Standalone.gnb.ipv4.ip packetDropAddressResolutionFailed:count 0
scalar SingleCell_Standalone.gnb.ipv4.ip packetDropAddressResolutionFailed:sum(packetBytes) 0
scalar SingleCell_Standalone.gnb.ipv4.ip packetDropHopLimitReached:count 0
scalar SingleCell_Standalone.gnb.ipv4.ip packetDropHopLimitReached:sum(packetBytes) 0
scalar SingleCell_Standalone.gnb.ipv4.ip packetDropForwardingDisabled:count 0
scalar SingleCell_Standalone.gnb.ipv4.ip packetDropForwardingDisabled:sum(packetBytes) 0
scalar SingleCell_Standalone.gnb.ipv4.ip packetDropNoInterfaceFound:count 0
scalar SingleCell_Standalone.gnb.ipv4.ip packetDropNoInterfaceFound:sum(packetBytes) 0
scalar SingleCell_Standalone.gnb.ipv4.ip packetDropNoRouteFound:count 0
scalar SingleCell_Standalone.gnb.ipv4.ip packetDropNoRouteFound:sum(packetBytes) 0
scalar SingleCell_Standalone.gnb.ipv4.ip packetDropUndefined:count 0
scalar SingleCell_Standalone.gnb.ipv4.ip packetDropUndefined:sum(packetBytes) 0
scalar SingleCell_Standalone.gnb.ipv4.arp arpResolutionFailed:count 0
scalar SingleCell_Standalone.gnb.ipv4.arp arpResolutionCompleted:count 0
scalar SingleCell_Standalone.gnb.ipv4.arp arpResolutionInitiated:count 0
scalar SingleCell_Standalone.gnb.ipv4.arp arpReplySent:count 0
scalar SingleCell_Standalone.gnb.ipv4.arp arpReplySent:sum(packetBytes) 0
scalar SingleCell_Standalone.gnb.ipv4.arp arpRequestSent:count 0
scalar SingleCell_Standalone.gnb.ipv4.arp arpRequestSent:sum(packetBytes) 0
scalar SingleCell_Standalone.gnb.udp packetReceived:count 5063
scalar SingleCell_Standalone.gnb.udp packetReceived:sum(packetBytes) 425292
scalar SingleCell_Standalone.gnb.udp packetSent:count 0
scalar SingleCell_Standalone.gnb.udp packetSent:sum(packetBytes) 0
scalar SingleCell_Standalone.gnb.udp passedUpPk:count 5063
scalar SingleCell_Standalone.gnb.udp droppedPkWrongPort:count 0
scalar SingleCell_Standalone.gnb.udp droppedPkBadChecksum:count 0
scalar SingleCell_Standalone.ue[0].lo[0].lo rcvdPkFromHl:count 0
scalar SingleCell_Standalone.ue[0].lo[0].lo rcvdPkFromHl:sum(packetBytes) 0
scalar SingleCell_Standalone.ue[0].lo[0].lo passedUpPk:count 0
scalar SingleCell_Standalone.ue[0].lo[0].lo passedUpPk:sum(packetBytes) 0
scalar SingleCell_Standalone.ue[0].lo[0] packetDropInterfaceDown:count 0
scalar SingleCell_Standalone.ue[0].lo[0] packetDropInterfaceDown:sum(packetBytes) 0
scalar SingleCell_Standalone.ue[0].lo[0] packetDropNoCarrier:count 0
scalar SingleCell_Standalone.ue[0].lo[0] packetDropNoCarrier:sum(packetBytes) 0
scalar SingleCell_Standalone.ue[0].cellularNic.rlcMux rlcCellThroughputD2D:simu5g_rateavg -nan
scalar SingleCell_Standalone.ue[0].cellularNic.rlcMux rlcPduThroughputD2D:simu5g_rateavg -nan
scalar SingleCell_Standalone.ue[0].cellularNic.rlcMux rlcPduDelayD2D:mean -nan
scalar SingleCell_Standalone.ue[0].cellularNic.rlcMux rlcThroughputD2D:simu5g_rateavg -nan
scalar SingleCell_Standalone.ue[0].cellularNic.rlcMux rlcDelayD2D:mean -nan
scalar SingleCell_Standalone.ue[0].cellularNic.rlcMux rlcCellThroughputUl:simu5g_rateavg -nan
scalar SingleCell_Standalone.ue[0].cellularNic.rlcMux rlcCellThroughputDl:simu5g_rateavg -nan
scalar SingleCell_Standalone.ue[0].cellularNic.rlcMux rlcPduThroughputUl:simu5g_rateavg -nan
scalar SingleCell_Standalone.ue[0].cellularNic.rlcMux rlcPduThroughputDl:simu5g_rateavg -nan
scalar SingleCell_Standalone.ue[0].cellularNic.rlcMux rlcPduDelayUl:mean -nan
scalar SingleCell_Standalone.ue[0].cellularNic.rlcMux rlcPduDelayDl:mean -nan
scalar SingleCell_Standalone.ue[0].cellularNic.rlcMux rlcThroughputUl:simu5g_rateavg -nan
scalar SingleCell_Standalone.ue[0].cellularNic.rlcMux rlcThroughputDl:simu5g_rateavg -nan
scalar SingleCell_Standalone.ue[0].cellularNic.rlcMux rlcDelayUl:mean -nan
scalar SingleCell_Standalone.ue[0].cellularNic.rlcMux rlcDelayDl:mean -nan
scalar SingleCell_Standalone.ue[0].cellularNic.rlcMux sentPacketToLowerLayer:count 0
scalar SingleCell_Standalone.ue[0].cellularNic.rlcMux sentPacketToLowerLayer:sum(packetBytes) 0
scalar SingleCell_Standalone.ue[0].cellularNic.rlcMux receivedPacketFromLowerLayer:count 0
scalar SingleCell_Standalone.ue[0].cellularNic.rlcMux receivedPacketFromLowerLayer:sum(packetBytes) 0
scalar SingleCell_Standalone.ue[0].cellularNic.mac harqErrorRate_4th_D2D:mean -nan
scalar SingleCell_Standalone.ue[0].cellularNic.mac harqErrorRate_3rd_D2D:mean -nan
scalar SingleCell_Standalone.ue[0].cellularNic.mac harqErrorRate_2nd_D2D:mean -nan
scalar SingleCell_Standalone.ue[0].cellularNic.mac harqErrorRate_1st_D2D:mean -nan
scalar SingleCell_Standalone.ue[0].cellularNic.mac harqErrorRateD2D:mean -nan
scalar SingleCell_Standalone.ue[0].cellularNic.mac macPacketLossD2D:mean -nan
scalar SingleCell_Standalone.ue[0].cellularNic.mac macDelayD2D:mean -nan
scalar SingleCell_Standalone.ue[0].cellularNic.mac macThroughputD2D:simu5g_rateavg -nan
scalar SingleCell_Standalone.ue[0].cellularNic.mac harqTxAttemptsUl:mean -nan
scalar SingleCell_Standalone.ue[0].cellularNic.mac harqTxAttemptsDl:mean -nan
scalar SingleCell_Standalone.ue[0].cellularNic.mac harqErrorRate_4th_Ul:mean -nan
scalar SingleCell_Standalone.ue[0].cellularNic.mac harqErrorRate_4th_Dl:mean -nan
scalar SingleCell_Standalone.ue[0].cellularNic.mac harqErrorRate_3rd_Ul:mean -nan
scalar SingleCell_Standalone.ue[0].cellularNic.mac harqErrorRate_3rd_Dl:mean -nan
scalar SingleCell_Standalone.ue[0].cellularNic.mac harqErrorRate_2nd_Ul:mean -nan
scalar SingleCell_Standalone.ue[0].cellularNic.mac harqErrorRate_2nd_Dl:mean -nan
scalar SingleCell_Standalone.ue[0].cellularNic.mac harqErrorRate_1st_Ul:mean -nan
scalar SingleCell_Standalone.ue[0].cellularNic.mac harqErrorRate_1st_Dl:mean -nan
scalar SingleCell_Standalone.ue[0].cellularNic.mac harqErrorRateUl:mean -nan
scalar SingleCell_Standalone.ue[0].cellularNic.mac harqErrorRateDl:mean -nan
scalar SingleCell_Standalone.ue[0].cellularNic.mac macCellPacketLossUl:mean -nan
scalar SingleCell_Standalone.ue[0].cellularNic.mac macCellPacketLossDl:mean -nan
scalar SingleCell_Standalone.ue[0].cellularNic.mac macPacketLossUl:mean -nan
scalar SingleCell_Standalone.ue[0].cellularNic.mac macPacketLossDl:mean -nan
scalar SingleCell_Standalone.ue[0].cellularNic.mac macThroughputUl:simu5g_rateavg -nan
scalar SingleCell_Standalone.ue[0].cellularNic.mac macThroughputDl:simu5g_rateavg -nan
scalar SingleCell_Standalone.ue[0].cellularNic.mac macDelayUl:mean -nan
scalar SingleCell_Standalone.ue[0].cellularNic.mac macDelayDl:mean -nan
scalar SingleCell_Standalone.ue[0].cellularNic.mac macCellThroughputUl:simu5g_rateavg -nan
scalar SingleCell_Standalone.ue[0].cellularNic.mac macCellThroughputDl:simu5g_rateavg -nan
scalar SingleCell_Standalone.ue[0].cellularNic.mac rcvdD2DModeSwitchNotification:count 0
scalar SingleCell_Standalone.ue[0].cellularNic.mac sentPacketToLowerLayer:count 0
scalar SingleCell_Standalone.ue[0].cellularNic.mac sentPacketToLowerLayer:sum(packetBytes) 0
scalar SingleCell_Standalone.ue[0].cellularNic.mac sentPacketToUpperLayer:count 0
scalar SingleCell_Standalone.ue[0].cellularNic.mac sentPacketToUpperLayer:sum(packetBytes) 0
scalar SingleCell_Standalone.ue[0].cellularNic.mac receivedPacketFromLowerLayer:count 0
scalar SingleCell_Standalone.ue[0].cellularNic.mac receivedPacketFromLowerLayer:sum(packetBytes) 0
scalar SingleCell_Standalone.ue[0].cellularNic.mac receivedPacketFromUpperLayer:count 0
scalar SingleCell_Standalone.ue[0].cellularNic.mac receivedPacketFromUpperLayer:sum(packetBytes) 0
scalar SingleCell_Standalone.ue[0].cellularNic.mac macBufferOverFlowD2D:mean -nan
scalar SingleCell_Standalone.ue[0].cellularNic.mac macBufferOverFlowUl:mean -nan
scalar SingleCell_Standalone.ue[0].cellularNic.mac macBufferOverFlowDl:mean -nan
scalar SingleCell_Standalone.ue[0].cellularNic.phy distance:mean -nan
scalar SingleCell_Standalone.ue[0].cellularNic.phy averageCqiD2D:mean -nan
scalar SingleCell_Standalone.ue[0].cellularNic.phy averageCqiUl:mean -nan
scalar SingleCell_Standalone.ue[0].cellularNic.phy averageCqiUl:count 0
scalar SingleCell_Standalone.ue[0].cellularNic.phy averageCqiDl:mean -nan
scalar SingleCell_Standalone.ue[0].cellularNic.phy averageCqiDl:count 0
scalar SingleCell_Standalone.ue[0].cellularNic.channelModel[0] measuredSinrUl:mean -nan
scalar SingleCell_Standalone.ue[0].cellularNic.channelModel[0] measuredSinrDl:mean -nan
scalar SingleCell_Standalone.ue[0].cellularNic.channelModel[0] rcvdSinrD2D:mean -nan
scalar SingleCell_Standalone.ue[0].cellularNic.channelModel[0] rcvdSinrUl:mean -nan
scalar SingleCell_Standalone.ue[0].cellularNic.channelModel[0] rcvdSinrDl:mean -nan
scalar SingleCell_Standalone.ue[0].cellularNic.nrRlcMux rlcCellThroughputD2D:simu5g_rateavg -nan
scalar SingleCell_Standalone.ue[0].cellularNic.nrRlcMux rlcPduThroughputD2D:simu5g_rateavg -nan
scalar SingleCell_Standalone.ue[0].cellularNic.nrRlcMux rlcPduDelayD2D:mean -nan
scalar SingleCell_Standalone.ue[0].cellularNic.nrRlcMux rlcThroughputD2D:simu5g_rateavg -nan
scalar SingleCell_Standalone.ue[0].cellularNic.nrRlcMux rlcDelayD2D:mean -nan
scalar SingleCell_Standalone.ue[0].cellularNic.nrRlcMux rlcCellThroughputUl:simu5g_rateavg -nan
scalar SingleCell_Standalone.ue[0].cellularNic.nrRlcMux rlcCellThroughputDl:simu5g_rateavg -nan
scalar SingleCell_Standalone.ue[0].cellularNic.nrRlcMux rlcPduThroughputUl:simu5g_rateavg -nan
scalar SingleCell_Standalone.ue[0].cellularNic.nrRlcMux rlcPduThroughputDl:simu5g_rateavg 0
scalar SingleCell_Standalone.ue[0].cellularNic.nrRlcMux rlcPduDelayUl:mean -nan
scalar SingleCell_Standalone.ue[0].cellularNic.nrRlcMux rlcPduDelayDl:mean 0.003999999999999739
scalar SingleCell_Standalone.ue[0].cellularNic.nrRlcMux rlcThroughputUl:simu5g_rateavg -nan
scalar SingleCell_Standalone.ue[0].cellularNic.nrRlcMux rlcThroughputDl:simu5g_rateavg 9216.9418687598991
scalar SingleCell_Standalone.ue[0].cellularNic.nrRlcMux rlcDelayUl:mean -nan
scalar SingleCell_Standalone.ue[0].cellularNic.nrRlcMux rlcDelayDl:mean 0.0044550813491544732
scalar SingleCell_Standalone.ue[0].cellularNic.nrRlcMux sentPacketToLowerLayer:count 0
scalar SingleCell_Standalone.ue[0].cellularNic.nrRlcMux sentPacketToLowerLayer:sum(packetBytes) 0
scalar SingleCell_Standalone.ue[0].cellularNic.nrRlcMux receivedPacketFromLowerLayer:count 2468
scalar SingleCell_Standalone.ue[0].cellularNic.nrRlcMux receivedPacketFromLowerLayer:sum(packetBytes) 203876
scalar SingleCell_Standalone.ue[0].cellularNic.nrMac harqErrorRate_4th_D2D:mean -nan
scalar SingleCell_Standalone.ue[0].cellularNic.nrMac harqErrorRate_3rd_D2D:mean -nan
scalar SingleCell_Standalone.ue[0].cellularNic.nrMac harqErrorRate_2nd_D2D:mean -nan
scalar SingleCell_Standalone.ue[0].cellularNic.nrMac harqErrorRate_1st_D2D:mean -nan
scalar SingleCell_Standalone.ue[0].cellularNic.nrMac harqErrorRateD2D:mean -nan
scalar SingleCell_Standalone.ue[0].cellularNic.nrMac macPacketLossD2D:mean -nan
scalar SingleCell_Standalone.ue[0].cellularNic.nrMac macDelayD2D:mean -nan
scalar SingleCell_Standalone.ue[0].cellularNic.nrMac macThroughputD2D:simu5g_rateavg -nan
scalar SingleCell_Standalone.ue[0].cellularNic.nrMac harqTxAttemptsUl:mean -nan
scalar SingleCell_Standalone.ue[0].cellularNic.nrMac harqTxAttemptsDl:mean 1
scalar SingleCell_Standalone.ue[0].cellularNic.nrMac harqErrorRate_4th_Ul:mean -nan
scalar SingleCell_Standalone.ue[0].cellularNic.nrMac harqErrorRate_4th_Dl:mean -nan
scalar SingleCell_Standalone.ue[0].cellularNic.nrMac harqErrorRate_3rd_Ul:mean -nan
scalar SingleCell_Standalone.ue[0].cellularNic.nrMac harqErrorRate_3rd_Dl:mean -nan
scalar SingleCell_Standalone.ue[0].cellularNic.nrMac harqErrorRate_2nd_Ul:mean -nan
scalar SingleCell_Standalone.ue[0].cellularNic.nrMac harqErrorRate_2nd_Dl:mean -nan
scalar SingleCell_Standalone.ue[0].cellularNic.nrMac harqErrorRate_1st_Ul:mean -nan
scalar SingleCell_Standalone.ue[0].cellularNic.nrMac harqErrorRate_1st_Dl:mean 0
scalar SingleCell_Standalone.ue[0].cellularNic.nrMac harqErrorRateUl:mean -nan
scalar SingleCell_Standalone.ue[0].cellularNic.nrMac harqErrorRateDl:mean 0
scalar SingleCell_Standalone.ue[0].cellularNic.nrMac macCellPacketLossUl:mean -nan
scalar SingleCell_Standalone.ue[0].cellularNic.nrMac macCellPacketLossDl:mean -nan
scalar SingleCell_Standalone.ue[0].cellularNic.nrMac macPacketLossUl:mean -nan
scalar SingleCell_Standalone.ue[0].cellularNic.nrMac macPacketLossDl:mean 0
scalar SingleCell_Standalone.ue[0].cellularNic.nrMac macThroughputUl:simu5g_rateavg -nan
scalar SingleCell_Standalone.ue[0].cellularNic.nrMac macThroughputDl:simu5g_rateavg 9620.7248277137332
scalar SingleCell_Standalone.ue[0].cellularNic.nrMac macDelayUl:mean -nan
scalar SingleCell_Standalone.ue[0].cellularNic.nrMac macDelayDl:mean 0.003999999999999739
scalar SingleCell_Standalone.ue[0].cellularNic.nrMac macCellThroughputUl:simu5g_rateavg -nan
scalar SingleCell_Standalone.ue[0].cellularNic.nrMac macCellThroughputDl:simu5g_rateavg -nan
scalar SingleCell_Standalone.ue[0].cellularNic.nrMac rcvdD2DModeSwitchNotification:count 0
scalar SingleCell_Standalone.ue[0].cellularNic.nrMac sentPacketToLowerLayer:count 2468
scalar SingleCell_Standalone.ue[0].cellularNic.nrMac sentPacketToLowerLayer:sum(packetBytes) 2468
scalar SingleCell_Standalone.ue[0].cellularNic.nrMac sentPacketToUpperLayer:count 2468
scalar SingleCell_Standalone.ue[0].cellularNic.nrMac sentPacketToUpperLayer:sum(packetBytes) 203876
scalar SingleCell_Standalone.ue[0].cellularNic.nrMac receivedPacketFromLowerLayer:count 2468
scalar SingleCell_Standalone.ue[0].cellularNic.nrMac receivedPacketFromLowerLayer:sum(packetBytes) 208812
scalar SingleCell_Standalone.ue[0].cellularNic.nrMac receivedPacketFromUpperLayer:count 0
scalar SingleCell_Standalone.ue[0].cellularNic.nrMac receivedPacketFromUpperLayer:sum(packetBytes) 0
scalar SingleCell_Standalone.ue[0].cellularNic.nrMac macBufferOverFlowD2D:mean -nan
scalar SingleCell_Standalone.ue[0].cellularNic.nrMac macBufferOverFlowUl:mean -nan
scalar SingleCell_Standalone.ue[0].cellularNic.nrMac macBufferOverFlowDl:mean -nan
scalar SingleCell_Standalone.ue[0].cellularNic.nrPhy distance:mean -nan
scalar SingleCell_Standalone.ue[0].cellularNic.nrPhy averageCqiD2D:mean -nan
scalar SingleCell_Standalone.ue[0].cellularNic.nrPhy averageCqiUl:mean -nan
scalar SingleCell_Standalone.ue[0].cellularNic.nrPhy averageCqiUl:count 0
scalar SingleCell_Standalone.ue[0].cellularNic.nrPhy averageCqiDl:mean 15
scalar SingleCell_Standalone.ue[0].cellularNic.nrPhy averageCqiDl:count 2468
scalar SingleCell_Standalone.ue[0].cellularNic.nrChannelModel[0] measuredSinrUl:mean 34.999819775995796
scalar SingleCell_Standalone.ue[0].cellularNic.nrChannelModel[0] measuredSinrDl:mean 58.9443112093509
scalar SingleCell_Standalone.ue[0].cellularNic.nrChannelModel[0] rcvdSinrD2D:mean -nan
scalar SingleCell_Standalone.ue[0].cellularNic.nrChannelModel[0] rcvdSinrUl:mean -nan
scalar SingleCell_Standalone.ue[0].cellularNic.nrChannelModel[0] rcvdSinrDl:mean 46.380928426552558
scalar SingleCell_Standalone.ue[0].cellularNic packetDropInterfaceDown:count 0
scalar SingleCell_Standalone.ue[0].cellularNic packetDropInterfaceDown:sum(packetBytes) 0
scalar SingleCell_Standalone.ue[0].cellularNic packetDropNoCarrier:count 0
scalar SingleCell_Standalone.ue[0].cellularNic packetDropNoCarrier:sum(packetBytes) 0
scalar SingleCell_Standalone.ue[0].encap pauseSent:count 0
scalar SingleCell_Standalone.ue[0].encap pauseSent:sum 0
scalar SingleCell_Standalone.ue[0].encap decapPk:count 0
scalar SingleCell_Standalone.ue[0].encap decapPk:sum(packetBytes) 0
scalar SingleCell_Standalone.ue[0].encap encapPk:count 0
scalar SingleCell_Standalone.ue[0].encap encapPk:sum(packetBytes) 0
scalar SingleCell_Standalone.ue[0].ipv4.ip packetDropAddressResolutionFailed:count 0
scalar SingleCell_Standalone.ue[0].ipv4.ip packetDropAddressResolutionFailed:sum(packetBytes) 0
scalar SingleCell_Standalone.ue[0].ipv4.ip packetDropHopLimitReached:count 0
scalar SingleCell_Standalone.ue[0].ipv4.ip packetDropHopLimitReached:sum(packetBytes) 0
scalar SingleCell_Standalone.ue[0].ipv4.ip packetDropForwardingDisabled:count 0
scalar SingleCell_Standalone.ue[0].ipv4.ip packetDropForwardingDisabled:sum(packetBytes) 0
scalar SingleCell_Standalone.ue[0].ipv4.ip packetDropNoInterfaceFound:count 0
scalar SingleCell_Standalone.ue[0].ipv4.ip packetDropNoInterfaceFound:sum(packetBytes) 0
scalar SingleCell_Standalone.ue[0].ipv4.ip packetDropNoRouteFound:count 0
scalar SingleCell_Standalone.ue[0].ipv4.ip packetDropNoRouteFound:sum(packetBytes) 0
scalar SingleCell_Standalone.ue[0].ipv4.ip packetDropUndefined:count 0
scalar SingleCell_Standalone.ue[0].ipv4.ip packetDropUndefined:sum(packetBytes) 0
scalar SingleCell_Standalone.ue[0].ipv4.arp arpResolutionFailed:count 0
scalar SingleCell_Standalone.ue[0].ipv4.arp arpResolutionCompleted:count 0
scalar SingleCell_Standalone.ue[0].ipv4.arp arpResolutionInitiated:count 0
scalar SingleCell_Standalone.ue[0].ipv4.arp arpReplySent:count 0
scalar SingleCell_Standalone.ue[0].ipv4.arp arpReplySent:sum(packetBytes) 0
scalar SingleCell_Standalone.ue[0].ipv4.arp arpRequestSent:count 0
scalar SingleCell_Standalone.ue[0].ipv4.arp arpRequestSent:sum(packetBytes) 0
scalar SingleCell_Standalone.ue[0].udp packetReceived:count 2842
scalar SingleCell_Standalone.ue[0].udp packetReceived:sum(packetBytes) 136416
scalar SingleCell_Standalone.ue[0].udp packetSent:count 0
scalar SingleCell_Standalone.ue[0].udp packetSent:sum(packetBytes) 0
scalar SingleCell_Standalone.ue[0].udp passedUpPk:count 2842
scalar SingleCell_Standalone.ue[0].udp droppedPkWrongPort:count 0
scalar SingleCell_Standalone.ue[0].udp droppedPkBadChecksum:count 0
scalar SingleCell_Standalone.ue[0].app[0] voipReceivedThroughput:simu5g_rateavg 1236.7324314701011
scalar SingleCell_Standalone.ue[0].app[0] voipPlayoutLoss:mean 0
scalar SingleCell_Standalone.ue[0].app[0] voipJitter:mean -nan
scalar SingleCell_Standalone.ue[0].app[0] voipTaildropLoss:mean 0
scalar SingleCell_Standalone.ue[0].app[0] voipMos:mean 4.4092858240000004
scalar SingleCell_Standalone.ue[0].app[0] voipFrameDelay:mean 0.0043828926784901167
scalar SingleCell_Standalone.ue[0].app[0] voipFrameLoss:mean 0
scalar SingleCell_Standalone.ue[0].app[0] voipPlayoutDelay:mean 0
scalar SingleCell_Standalone.ue[0].app[1] voipReceivedThroughput:simu5g_rateavg 964.26351337227629
scalar SingleCell_Standalone.ue[0].app[1] voipPlayoutLoss:mean 0
scalar SingleCell_Standalone.ue[0].app[1] voipJitter:mean -nan
scalar SingleCell_Standalone.ue[0].app[1] voipTaildropLoss:mean 0
scalar SingleCell_Standalone.ue[0].app[1] voipMos:mean 4.4092858240000004
scalar SingleCell_Standalone.ue[0].app[1] voipFrameDelay:mean 0.0045518380265673368
scalar SingleCell_Standalone.ue[0].app[1] voipFrameLoss:mean 0
scalar SingleCell_Standalone.ue[0].app[1] voipPlayoutDelay:mean 0
scalar SingleCell_Standalone.ue[0].app[2] voipReceivedThroughput:simu5g_rateavg 1378.9903215390927
scalar SingleCell_Standalone.ue[0].app[2] voipPlayoutLoss:mean 0
scalar SingleCell_Standalone.ue[0].app[2] voipJitter:mean -nan
scalar SingleCell_Standalone.ue[0].app[2] voipTaildropLoss:mean 0
scalar SingleCell_Standalone.ue[0].app[2] voipMos:mean 4.4092858240000004
scalar SingleCell_Standalone.ue[0].app[2] voipFrameDelay:mean 0.0044322034159101908
scalar SingleCell_Standalone.ue[0].app[2] voipFrameLoss:mean 0
scalar SingleCell_Standalone.ue[0].app[2] voipPlayoutDelay:mean 0
scalar SingleCell_Standalone.ue[0].app[3] voipReceivedThroughput:simu5g_rateavg 1603.7373218233381
scalar SingleCell_Standalone.ue[0].app[3] voipPlayoutLoss:mean 0
scalar SingleCell_Standalone.ue[0].app[3] voipJitter:mean -nan
scalar SingleCell_Standalone.ue[0].app[3] voipTaildropLoss:mean 0
scalar SingleCell_Standalone.ue[0].app[3] voipMos:mean 4.4092858240000004
scalar SingleCell_Standalone.ue[0].app[3] voipFrameDelay:mean 0.0044822164398675588
scalar SingleCell_Standalone.ue[0].app[3] voipFrameLoss:mean 0
scalar SingleCell_Standalone.ue[0].app[3] voipPlayoutDelay:mean 0
scalar SingleCell_Standalone.ue[1].lo[0].lo rcvdPkFromHl:count 0
scalar SingleCell_Standalone.ue[1].lo[0].lo rcvdPkFromHl:sum(packetBytes) 0
scalar SingleCell_Standalone.ue[1].lo[0].lo passedUpPk:count 0
scalar SingleCell_Standalone.ue[1].lo[0].lo passedUpPk:sum(packetBytes) 0
scalar SingleCell_Standalone.ue[1].lo[0] packetDropInterfaceDown:count 0
scalar SingleCell_Standalone.ue[1].lo[0] packetDropInterfaceDown:sum(packetBytes) 0
scalar SingleCell_Standalone.ue[1].lo[0] packetDropNoCarrier:count 0
scalar SingleCell_Standalone.ue[1].lo[0] packetDropNoCarrier:sum(packetBytes) 0
scalar SingleCell_Standalone.ue[1].cellularNic.rlcMux rlcCellThroughputD2D:simu5g_rateavg -nan
scalar SingleCell_Standalone.ue[1].cellularNic.rlcMux rlcPduThroughputD2D:simu5g_rateavg -nan
scalar SingleCell_Standalone.ue[1].cellularNic.rlcMux rlcPduDelayD2D:mean -nan
scalar SingleCell_Standalone.ue[1].cellularNic.rlcMux rlcThroughputD2D:simu5g_rateavg -nan
scalar SingleCell_Standalone.ue[1].cellularNic.rlcMux rlcDelayD2D:mean -nan
scalar SingleCell_Standalone.ue[1].cellularNic.rlcMux rlcCellThroughputUl:simu5g_rateavg -nan
scalar SingleCell_Standalone.ue[1].cellularNic.rlcMux rlcCellThroughputDl:simu5g_rateavg -nan
scalar SingleCell_Standalone.ue[1].cellularNic.rlcMux rlcPduThroughputUl:simu5g_rateavg -nan
scalar SingleCell_Standalone.ue[1].cellularNic.rlcMux rlcPduThroughputDl:simu5g_rateavg -nan
scalar SingleCell_Standalone.ue[1].cellularNic.rlcMux rlcPduDelayUl:mean -nan
scalar SingleCell_Standalone.ue[1].cellularNic.rlcMux rlcPduDelayDl:mean -nan
scalar SingleCell_Standalone.ue[1].cellularNic.rlcMux rlcThroughputUl:simu5g_rateavg -nan
scalar SingleCell_Standalone.ue[1].cellularNic.rlcMux rlcThroughputDl:simu5g_rateavg -nan
scalar SingleCell_Standalone.ue[1].cellularNic.rlcMux rlcDelayUl:mean -nan
scalar SingleCell_Standalone.ue[1].cellularNic.rlcMux rlcDelayDl:mean -nan
scalar SingleCell_Standalone.ue[1].cellularNic.rlcMux sentPacketToLowerLayer:count 0
scalar SingleCell_Standalone.ue[1].cellularNic.rlcMux sentPacketToLowerLayer:sum(packetBytes) 0
scalar SingleCell_Standalone.ue[1].cellularNic.rlcMux receivedPacketFromLowerLayer:count 0
scalar SingleCell_Standalone.ue[1].cellularNic.rlcMux receivedPacketFromLowerLayer:sum(packetBytes) 0
scalar SingleCell_Standalone.ue[1].cellularNic.mac harqErrorRate_4th_D2D:mean -nan
scalar SingleCell_Standalone.ue[1].cellularNic.mac harqErrorRate_3rd_D2D:mean -nan
scalar SingleCell_Standalone.ue[1].cellularNic.mac harqErrorRate_2nd_D2D:mean -nan
scalar SingleCell_Standalone.ue[1].cellularNic.mac harqErrorRate_1st_D2D:mean -nan
scalar SingleCell_Standalone.ue[1].cellularNic.mac harqErrorRateD2D:mean -nan
scalar SingleCell_Standalone.ue[1].cellularNic.mac macPacketLossD2D:mean -nan
scalar SingleCell_Standalone.ue[1].cellularNic.mac macDelayD2D:mean -nan
scalar SingleCell_Standalone.ue[1].cellularNic.mac macThroughputD2D:simu5g_rateavg -nan
scalar SingleCell_Standalone.ue[1].cellularNic.mac harqTxAttemptsUl:mean -nan
scalar SingleCell_Standalone.ue[1].cellularNic.mac harqTxAttemptsDl:mean -nan
scalar SingleCell_Standalone.ue[1].cellularNic.mac harqErrorRate_4th_Ul:mean -nan
scalar SingleCell_Standalone.ue[1].cellularNic.mac harqErrorRate_4th_Dl:mean -nan
scalar SingleCell_Standalone.ue[1].cellularNic.mac harqErrorRate_3rd_Ul:mean -nan
scalar SingleCell_Standalone.ue[1].cellularNic.mac harqErrorRate_3rd_Dl:mean -nan
scalar SingleCell_Standalone.ue[1].cellularNic.mac harqErrorRate_2nd_Ul:mean -nan
scalar SingleCell_Standalone.ue[1].cellularNic.mac harqErrorRate_2nd_Dl:mean -nan
scalar SingleCell_Standalone.ue[1].cellularNic.mac harqErrorRate_1st_Ul:mean -nan
scalar SingleCell_Standalone.ue[1].cellularNic.mac harqErrorRate_1st_Dl:mean -nan
scalar SingleCell_Standalone.ue[1].cellularNic.mac harqErrorRateUl:mean -nan
scalar SingleCell_Standalone.ue[1].cellularNic.mac harqErrorRateDl:mean -nan
scalar SingleCell_Standalone.ue[1].cellularNic.mac macCellPacketLossUl:mean -nan
scalar SingleCell_Standalone.ue[1].cellularNic.mac macCellPacketLossDl:mean -nan
scalar SingleCell_Standalone.ue[1].cellularNic.mac macPacketLossUl:mean -nan
scalar SingleCell_Standalone.ue[1].cellularNic.mac macPacketLossDl:mean -nan
scalar SingleCell_Standalone.ue[1].cellularNic.mac macThroughputUl:simu5g_rateavg -nan
scalar SingleCell_Standalone.ue[1].cellularNic.mac macThroughputDl:simu5g_rateavg -nan
scalar SingleCell_Standalone.ue[1].cellularNic.mac macDelayUl:mean -nan
scalar SingleCell_Standalone.ue[1].cellularNic.mac macDelayDl:mean -nan
scalar SingleCell_Standalone.ue[1].cellularNic.mac macCellThroughputUl:simu5g_rateavg -nan
scalar SingleCell_Standalone.ue[1].cellularNic.mac macCellThroughputDl:simu5g_rateavg -nan
scalar SingleCell_Standalone.ue[1].cellularNic.mac rcvdD2DModeSwitchNotification:count 0
scalar SingleCell_Standalone.ue[1].cellularNic.mac sentPacketToLowerLayer:count 0
scalar SingleCell_Standalone.ue[1].cellularNic.mac sentPacketToLowerLayer:sum(packetBytes) 0
scalar SingleCell_Standalone.ue[1].cellularNic.mac sentPacketToUpperLayer:count 0
scalar SingleCell_Standalone.ue[1].cellularNic.mac sentPacketToUpperLayer:sum(packetBytes) 0
scalar SingleCell_Standalone.ue[1].cellularNic.mac receivedPacketFromLowerLayer:count 0
scalar SingleCell_Standalone.ue[1].cellularNic.mac receivedPacketFromLowerLayer:sum(packetBytes) 0
scalar SingleCell_Standalone.ue[1].cellularNic.mac receivedPacketFromUpperLayer:count 0
scalar SingleCell_Standalone.ue[1].cellularNic.mac receivedPacketFromUpperLayer:sum(packetBytes) 0
scalar SingleCell_Standalone.ue[1].cellularNic.mac macBufferOverFlowD2D:mean -nan
scalar SingleCell_Standalone.ue[1].cellularNic.mac macBufferOverFlowUl:mean -nan
scalar SingleCell_Standalone.ue[1].cellularNic.mac macBufferOverFlowDl:mean -nan
scalar SingleCell_Standalone.ue[1].cellularNic.phy distance:mean -nan
scalar SingleCell_Standalone.ue[1].cellularNic.phy averageCqiD2D:mean -nan
scalar SingleCell_Standalone.ue[1].cellularNic.phy averageCqiUl:mean -nan
scalar SingleCell_Standalone.ue[1].cellularNic.phy averageCqiUl:count 0
scalar SingleCell_Standalone.ue[1].cellularNic.phy averageCqiDl:mean -nan
scalar SingleCell_Standalone.ue[1].cellularNic.phy averageCqiDl:count 0
scalar SingleCell_Standalone.ue[1].cellularNic.channelModel[0] measuredSinrUl:mean -nan
scalar SingleCell_Standalone.ue[1].cellularNic.channelModel[0] measuredSinrDl:mean -nan
scalar SingleCell_Standalone.ue[1].cellularNic.channelModel[0] rcvdSinrD2D:mean -nan
scalar SingleCell_Standalone.ue[1].cellularNic.channelModel[0] rcvdSinrUl:mean -nan
scalar SingleCell_Standalone.ue[1].cellularNic.channelModel[0] rcvdSinrDl:mean -nan
scalar SingleCell_Standalone.ue[1].cellularNic.nrRlcMux rlcCellThroughputD2D:simu5g_rateavg -nan
scalar SingleCell_Standalone.ue[1].cellularNic.nrRlcMux rlcPduThroughputD2D:simu5g_rateavg -nan
scalar SingleCell_Standalone.ue[1].cellularNic.nrRlcMux rlcPduDelayD2D:mean -nan
scalar SingleCell_Standalone.ue[1].cellularNic.nrRlcMux rlcThroughputD2D:simu5g_rateavg -nan
scalar SingleCell_Standalone.ue[1].cellularNic.nrRlcMux rlcDelayD2D:mean -nan
scalar SingleCell_Standalone.ue[1].cellularNic.nrRlcMux rlcCellThroughputUl:simu5g_rateavg -nan
scalar SingleCell_Standalone.ue[1].cellularNic.nrRlcMux rlcCellThroughputDl:simu5g_rateavg -nan
scalar SingleCell_Standalone.ue[1].cellularNic.nrRlcMux rlcPduThroughputUl:simu5g_rateavg -nan
scalar SingleCell_Standalone.ue[1].cellularNic.nrRlcMux rlcPduThroughputDl:simu5g_rateavg 0
scalar SingleCell_Standalone.ue[1].cellularNic.nrRlcMux rlcPduDelayUl:mean -nan
scalar SingleCell_Standalone.ue[1].cellularNic.nrRlcMux rlcPduDelayDl:mean 0.0039999999999997728
scalar SingleCell_Standalone.ue[1].cellularNic.nrRlcMux rlcThroughputUl:simu5g_rateavg -nan
scalar SingleCell_Standalone.ue[1].cellularNic.nrRlcMux rlcThroughputDl:simu5g_rateavg 7566.3216846930482
scalar SingleCell_Standalone.ue[1].cellularNic.nrRlcMux rlcDelayUl:mean -nan
scalar SingleCell_Standalone.ue[1].cellularNic.nrRlcMux rlcDelayDl:mean 0.0045363016234371062
scalar SingleCell_Standalone.ue[1].cellularNic.nrRlcMux sentPacketToLowerLayer:count 0
scalar SingleCell_Standalone.ue[1].cellularNic.nrRlcMux sentPacketToLowerLayer:sum(packetBytes) 0
scalar SingleCell_Standalone.ue[1].cellularNic.nrRlcMux receivedPacketFromLowerLayer:count 2081
scalar SingleCell_Standalone.ue[1].cellularNic.nrRlcMux receivedPacketFromLowerLayer:sum(packetBytes) 159632
scalar SingleCell_Standalone.ue[1].cellularNic.nrMac harqErrorRate_4th_D2D:mean -nan
scalar SingleCell_Standalone.ue[1].cellularNic.nrMac harqErrorRate_3rd_D2D:mean -nan
scalar SingleCell_Standalone.ue[1].cellularNic.nrMac harqErrorRate_2nd_D2D:mean -nan
scalar SingleCell_Standalone.ue[1].cellularNic.nrMac harqErrorRate_1st_D2D:mean -nan
scalar SingleCell_Standalone.ue[1].cellularNic.nrMac harqErrorRateD2D:mean -nan
scalar SingleCell_Standalone.ue[1].cellularNic.nrMac macPacketLossD2D:mean -nan
scalar SingleCell_Standalone.ue[1].cellularNic.nrMac macDelayD2D:mean -nan
scalar SingleCell_Standalone.ue[1].cellularNic.nrMac macThroughputD2D:simu5g_rateavg -nan
scalar SingleCell_Standalone.ue[1].cellularNic.nrMac harqTxAttemptsUl:mean -nan
scalar SingleCell_Standalone.ue[1].cellularNic.nrMac harqTxAttemptsDl:mean 1
scalar SingleCell_Standalone.ue[1].cellularNic.nrMac harqErrorRate_4th_Ul:mean -nan
scalar SingleCell_Standalone.ue[1].cellularNic.nrMac harqErrorRate_4th_Dl:mean -nan
scalar SingleCell_Standalone.ue[1].cellularNic.nrMac harqErrorRate_3rd_Ul:mean -nan
scalar SingleCell_Standalone.ue[1].cellularNic.nrMac harqErrorRate_3rd_Dl:mean -nan
scalar SingleCell_Standalone.ue[1].cellularNic.nrMac harqErrorRate_2nd_Ul:mean -nan
scalar SingleCell_Standalone.ue[1].cellularNic.nrMac harqErrorRate_2nd_Dl:mean -nan
scalar SingleCell_Standalone.ue[1].cellularNic.nrMac harqErrorRate_1st_Ul:mean -nan
scalar SingleCell_Standalone.ue[1].cellularNic.nrMac harqErrorRate_1st_Dl:mean 0
scalar SingleCell_Standalone.ue[1].cellularNic.nrMac harqErrorRateUl:mean -nan
scalar SingleCell_Standalone.ue[1].cellularNic.nrMac harqErrorRateDl:mean 0
scalar SingleCell_Standalone.ue[1].cellularNic.nrMac macCellPacketLossUl:mean -nan
scalar SingleCell_Standalone.ue[1].cellularNic.nrMac macCellPacketLossDl:mean -nan
scalar SingleCell_Standalone.ue[1].cellularNic.nrMac macPacketLossUl:mean -nan
scalar SingleCell_Standalone.ue[1].cellularNic.nrMac macPacketLossDl:mean 0
scalar SingleCell_Standalone.ue[1].cellularNic.nrMac macThroughputUl:simu5g_rateavg -nan
scalar SingleCell_Standalone.ue[1].cellularNic.nrMac macThroughputDl:simu5g_rateavg 7974.1851748162035
scalar SingleCell_Standalone.ue[1].cellularNic.nrMac macDelayUl:mean -nan
scalar SingleCell_Standalone.ue[1].cellularNic.nrMac macDelayDl:mean 0.0039999999999997728
scalar SingleCell_Standalone.ue[1].cellularNic.nrMac macCellThroughputUl:simu5g_rateavg -nan
scalar SingleCell_Standalone.ue[1].cellularNic.nrMac macCellThroughputDl:simu5g_rateavg -nan
scalar SingleCell_Standalone.ue[1].cellularNic.nrMac rcvdD2DModeSwitchNotification:count 0
scalar SingleCell_Standalone.ue[1].cellularNic.nrMac sentPacketToLowerLayer:count 2081
scalar SingleCell_Standalone.ue[1].cellularNic.nrMac sentPacketToLowerLayer:sum(packetBytes) 2081
scalar SingleCell_Standalone.ue[1].cellularNic.nrMac sentPacketToUpperLayer:count 2081
scalar SingleCell_Standalone.ue[1].cellularNic.nrMac sentPacketToUpperLayer:sum(packetBytes) 159632
scalar SingleCell_Standalone.ue[1].cellularNic.nrMac receivedPacketFromLowerLayer:count 2081
scalar SingleCell_Standalone.ue[1].cellularNic.nrMac receivedPacketFromLowerLayer:sum(packetBytes) 163794
scalar SingleCell_Standalone.ue[1].cellularNic.nrMac receivedPacketFromUpperLayer:count 0
scalar SingleCell_Standalone.ue[1].cellularNic.nrMac receivedPacketFromUpperLayer:sum(packetBytes) 0
scalar SingleCell_Standalone.ue[1].cellularNic.nrMac macBufferOverFlowD2D:mean -nan
scalar SingleCell_Standalone.ue[1].cellularNic.nrMac macBufferOverFlowUl:mean -nan
scalar SingleCell_Standalone.ue[1].cellularNic.nrMac macBufferOverFlowDl:mean -nan
scalar SingleCell_Standalone.ue[1].cellularNic.nrPhy distance:mean -nan
scalar SingleCell_Standalone.ue[1].cellularNic.nrPhy averageCqiD2D:mean -nan
scalar SingleCell_Standalone.ue[1].cellularNic.nrPhy averageCqiUl:mean -nan
scalar SingleCell_Standalone.ue[1].cellularNic.nrPhy averageCqiUl:count 0
scalar SingleCell_Standalone.ue[1].cellularNic.nrPhy averageCqiDl:mean 14
scalar SingleCell_Standalone.ue[1].cellularNic.nrPhy averageCqiDl:count 2081
scalar SingleCell_Standalone.ue[1].cellularNic.nrChannelModel[0] measuredSinrUl:mean 47.048392215217497
scalar SingleCell_Standalone.ue[1].cellularNic.nrChannelModel[0] measuredSinrDl:mean 48.334730726984489
scalar SingleCell_Standalone.ue[1].cellularNic.nrChannelModel[0] rcvdSinrD2D:mean -nan
scalar SingleCell_Standalone.ue[1].cellularNic.nrChannelModel[0] rcvdSinrUl:mean -nan
scalar SingleCell_Standalone.ue[1].cellularNic.nrChannelModel[0] rcvdSinrDl:mean 45.687023658048403
scalar SingleCell_Standalone.ue[1].cellularNic packetDropInterfaceDown:count 0
scalar SingleCell_Standalone.ue[1].cellularNic packetDropInterfaceDown:sum(packetBytes) 0
scalar SingleCell_Standalone.ue[1].cellularNic packetDropNoCarrier:count 0
scalar SingleCell_Standalone.ue[1].cellularNic packetDropNoCarrier:sum(packetBytes) 0
scalar SingleCell_Standalone.ue[1].encap pauseSent:count 0
scalar SingleCell_Standalone.ue[1].encap pauseSent:sum 0
scalar SingleCell_Standalone.ue[1].encap decapPk:count 0
scalar SingleCell_Standalone.ue[1].encap decapPk:sum(packetBytes) 0
scalar SingleCell_Standalone.ue[1].encap encapPk:count 0
scalar SingleCell_Standalone.ue[1].encap encapPk:sum(packetBytes) 0
scalar SingleCell_Standalone.ue[1].ipv4.ip packetDropAddressResolutionFailed:count 0
scalar SingleCell_Standalone.ue[1].ipv4.ip packetDropAddressResolutionFailed:sum(packetBytes) 0
scalar SingleCell_Standalone.ue[1].ipv4.ip packetDropHopLimitReached:count 0
scalar SingleCell_Standalone.ue[1].ipv4.ip packetDropHopLimitReached:sum(packetBytes) 0
scalar SingleCell_Standalone.ue[1].ipv4.ip packetDropForwardingDisabled:count 0
scalar SingleCell_Standalone.ue[1].ipv4.ip packetDropForwardingDisabled:sum(packetBytes) 0
scalar SingleCell_Standalone.ue[1].ipv4.ip packetDropNoInterfaceFound:count 0
scalar SingleCell_Standalone.ue[1].ipv4.ip packetDropNoInterfaceFound:sum(packetBytes) 0
scalar SingleCell_Standalone.ue[1].ipv4.ip packetDropNoRouteFound:count 0
scalar SingleCell_Standalone.ue[1].ipv4.ip packetDropNoRouteFound:sum(packetBytes) 0
scalar SingleCell_Standalone.ue[1].ipv4.ip packetDropUndefined:count 0
scalar SingleCell_Standalone.ue[1].ipv4.ip packetDropUndefined:sum(packetBytes) 0
scalar SingleCell_Standalone.ue[1].ipv4.arp arpResolutionFailed:count 0
scalar SingleCell_Standalone.ue[1].ipv4.arp arpResolutionCompleted:count 0
scalar SingleCell_Standalone.ue[1].ipv4.arp arpResolutionInitiated:count 0
scalar SingleCell_Standalone.ue[1].ipv4.arp arpReplySent:count 0
scalar SingleCell_Standalone.ue[1].ipv4.arp arpReplySent:sum(packetBytes) 0
scalar SingleCell_Standalone.ue[1].ipv4.arp arpRequestSent:count 0
scalar SingleCell_Standalone.ue[1].ipv4.arp arpRequestSent:sum(packetBytes) 0
scalar SingleCell_Standalone.ue[1].udp packetReceived:count 2221
scalar SingleCell_Standalone.ue[1].udp packetReceived:sum(packetBytes) 106608
scalar SingleCell_Standalone.ue[1].udp packetSent:count 0
scalar SingleCell_Standalone.ue[1].udp packetSent:sum(packetBytes) 0
scalar SingleCell_Standalone.ue[1].udp passedUpPk:count 2221
scalar SingleCell_Standalone.ue[1].udp droppedPkWrongPort:count 0
scalar SingleCell_Standalone.ue[1].udp droppedPkBadChecksum:count 0
scalar SingleCell_Standalone.ue[1].app[0] voipReceivedThroughput:simu5g_rateavg 1273.7903980928047
scalar SingleCell_Standalone.ue[1].app[0] voipPlayoutLoss:mean 0
scalar SingleCell_Standalone.ue[1].app[0] voipJitter:mean -nan
scalar SingleCell_Standalone.ue[1].app[0] voipTaildropLoss:mean 0
scalar SingleCell_Standalone.ue[1].app[0] voipMos:mean 4.4092858240000004
scalar SingleCell_Standalone.ue[1].app[0] voipFrameDelay:mean 0.0046690494543582192
scalar SingleCell_Standalone.ue[1].app[0] voipFrameLoss:mean 0
scalar SingleCell_Standalone.ue[1].app[0] voipPlayoutDelay:mean 0
scalar SingleCell_Standalone.ue[1].app[1] voipReceivedThroughput:simu5g_rateavg 886.40159410526337
scalar SingleCell_Standalone.ue[1].app[1] voipPlayoutLoss:mean 0
scalar SingleCell_Standalone.ue[1].app[1] voipJitter:mean -nan
scalar SingleCell_Standalone.ue[1].app[1] voipTaildropLoss:mean 0
scalar SingleCell_Standalone.ue[1].app[1] voipMos:mean 4.4092858240000004
scalar SingleCell_Standalone.ue[1].app[1] voipFrameDelay:mean 0.0045318296674478967
scalar SingleCell_Standalone.ue[1].app[1] voipFrameLoss:mean 0
scalar SingleCell_Standalone.ue[1].app[1] voipPlayoutDelay:mean 0
scalar SingleCell_Standalone.ue[1].app[2] voipReceivedThroughput:simu5g_rateavg 1136.3825452001993
scalar SingleCell_Standalone.ue[1].app[2] voipPlayoutLoss:mean 0
scalar SingleCell_Standalone.ue[1].app[2] voipJitter:mean -nan
scalar SingleCell_Standalone.ue[1].app[2] voipTaildropLoss:mean 0
scalar SingleCell_Standalone.ue[1].app[2] voipMos:mean 4.4092858240000004
scalar SingleCell_Standalone.ue[1].app[2] voipFrameDelay:mean 0.0043790976004909454
scalar SingleCell_Standalone.ue[1].app[2] voipFrameLoss:mean 0
scalar SingleCell_Standalone.ue[1].app[2] voipPlayoutDelay:mean 0
scalar SingleCell_Standalone.ue[1].app[3] voipReceivedThroughput:simu5g_rateavg 887.58549068082812
scalar SingleCell_Standalone.ue[1].app[3] voipPlayoutLoss:mean 0
scalar SingleCell_Standalone.ue[1].app[3] voipJitter:mean -nan
scalar SingleCell_Standalone.ue[1].app[3] voipTaildropLoss:mean 0
scalar SingleCell_Standalone.ue[1].app[3] voipMos:mean 4.4092858240000004
scalar SingleCell_Standalone.ue[1].app[3] voipFrameDelay:mean 0.0045406822066233936
scalar SingleCell_Standalone.ue[1].app[3] voipFrameLoss:mean 0
scalar SingleCell_Standalone.ue[1].app[3] voipPlayoutDelay:mean 0
scalar SingleCell_Standalone.server.ppp[0].queue queueingTime:histogram:count 5063
scalar SingleCell_Standalone.server.ppp[0].queue queueingTime:histogram:sumweights 5063
[...]
scalar SingleCell_Standalone.ue[1].cellularNic packetDropNoCarrier:vector(packetBytes):sumweights 0
scalar SingleCell_Standalone.ue[1].cellularNic packetDropNoCarrier:vector(packetBytes):mean -nan
scalar SingleCell_Standalone.ue[1].cellularNic packetDropNoCarrier:vector(packetBytes):stddev nan
scalar SingleCell_Standalone.ue[1].cellularNic packetDropNoCarrier:vector(packetBytes):min inf
scalar SingleCell_Standalone.ue[1].cellularNic packetDropNoCarrier:vector(packetBytes):max -inf
scalar SingleCell_Standalone.ue[1].cellularNic packetDropNoCarrier:vector(packetBytes):starttime nan
scalar SingleCell_Standalone.ue[1].cellularNic packetDropNoCarrier:vector(packetBytes):endtime nan
scalar SingleCell_Standalone.ue[1].encap encapPk:vector(packetBytes):count 0
scalar SingleCell_Standalone.ue[1].encap encapPk:vector(packetBytes):sum 0
scalar SingleCell_Standalone.ue[1].encap encapPk:vector(packetBytes):sumweights 0
scalar SingleCell_Standalone.ue[1].encap encapPk:vector(packetBytes):mean -nan
scalar SingleCell_Standalone.ue[1].encap encapPk:vector(packetBytes):stddev nan
scalar SingleCell_Standalone.ue[1].encap encapPk:vector(packetBytes):min inf
scalar SingleCell_Standalone.ue[1].encap encapPk:vector(packetBytes):max -inf
scalar SingleCell_Standalone.ue[1].encap encapPk:vector(packetBytes):starttime nan
scalar SingleCell_Standalone.ue[1].encap encapPk:vector(packetBytes):endtime nan
scalar SingleCell_Standalone.ue[1].encap decapPk:vector(packetBytes):count 0
scalar SingleCell_Standalone.ue[1].encap decapPk:vector(packetBytes):sum 0
scalar SingleCell_Standalone.ue[1].encap decapPk:vector(packetBytes):sumweights 0
scalar SingleCell_Standalone.ue[1].encap decapPk:vector(packetBytes):mean -nan
scalar SingleCell_Standalone.ue[1].encap decapPk:vector(packetBytes):stddev nan
scalar SingleCell_Standalone.ue[1].encap decapPk:vector(packetBytes):min inf
scalar SingleCell_Standalone.ue[1].encap decapPk:vector(packetBytes):max -inf
scalar SingleCell_Standalone.ue[1].encap decapPk:vector(packetBytes):starttime nan
scalar SingleCell_Standalone.ue[1].encap decapPk:vector(packetBytes):endtime nan
scalar SingleCell_Standalone.ue[1].encap pauseSent:vector:count 0
scalar SingleCell_Standalone.ue[1].encap pauseSent:vector:sum 0
scalar SingleCell_Standalone.ue[1].encap pauseSent:vector:sumweights 0
scalar SingleCell_Standalone.ue[1].encap pauseSent:vector:mean -nan
scalar SingleCell_Standalone.ue[1].encap pauseSent:vector:stddev nan
scalar SingleCell_Standalone.ue[1].encap pauseSent:vector:min inf
scalar SingleCell_Standalone.ue[1].encap pauseSent:vector:max -inf
scalar SingleCell_Standalone.ue[1].encap pauseSent:vector:starttime nan
scalar SingleCell_Standalone.ue[1].encap pauseSent:vector:endtime nan
scalar SingleCell_Standalone.ue[1].ipv4.ip packetDropAddressResolutionFailed:vector(packetBytes):count 0
scalar SingleCell_Standalone.ue[1].ipv4.ip packetDropAddressResolutionFailed:vector(packetBytes):sum 0
scalar SingleCell_Standalone.ue[1].ipv4.ip packetDropAddressResolutionFailed:vector(packetBytes):sumweights 0
scalar SingleCell_Standalone.ue[1].ipv4.ip packetDropAddressResolutionFailed:vector(packetBytes):mean -nan
scalar SingleCell_Standalone.ue[1].ipv4.ip packetDropAddressResolutionFailed:vector(packetBytes):stddev nan
scalar SingleCell_Standalone.ue[1].ipv4.ip packetDropAddressResolutionFailed:vector(packetBytes):min inf
scalar SingleCell_Standalone.ue[1].ipv4.ip packetDropAddressResolutionFailed:vector(packetBytes):max -inf
scalar SingleCell_Standalone.ue[1].ipv4.ip packetDropAddressResolutionFailed:vector(packetBytes):starttime nan
scalar SingleCell_Standalone.ue[1].ipv4.ip packetDropAddressResolutionFailed:vector(packetBytes):endtime nan
scalar SingleCell_Standalone.ue[1].ipv4.ip packetDropHopLimitReached:vector(packetBytes):count 0
scalar SingleCell_Standalone.ue[1].ipv4.ip packetDropHopLimitReached:vector(packetBytes):sum 0
scalar SingleCell_Standalone.ue[1].ipv4.ip packetDropHopLimitReached:vector(packetBytes):sumweights 0
scalar SingleCell_Standalone.ue[1].ipv4.ip packetDropHopLimitReached:vector(packetBytes):mean -nan
scalar SingleCell_Standalone.ue[1].ipv4.ip packetDropHopLimitReached:vector(packetBytes):stddev nan
scalar SingleCell_Standalone.ue[1].ipv4.ip packetDropHopLimitReached:vector(packetBytes):min inf
scalar SingleCell_Standalone.ue[1].ipv4.ip packetDropHopLimitReached:vector(packetBytes):max -inf
scalar SingleCell_Standalone.ue[1].ipv4.ip packetDropHopLimitReached:vector(packetBytes):starttime nan
scalar SingleCell_Standalone.ue[1].ipv4.ip packetDropHopLimitReached:vector(packetBytes):endtime nan
scalar SingleCell_Standalone.ue[1].ipv4.ip packetDropForwardingDisabled:vector(packetBytes):count 0
scalar SingleCell_Standalone.ue[1].ipv4.ip packetDropForwardingDisabled:vector(packetBytes):sum 0
scalar SingleCell_Standalone.ue[1].ipv4.ip packetDropForwardingDisabled:vector(packetBytes):sumweights 0
scalar SingleCell_Standalone.ue[1].ipv4.ip packetDropForwardingDisabled:vector(packetBytes):mean -nan
scalar SingleCell_Standalone.ue[1].ipv4.ip packetDropForwardingDisabled:vector(packetBytes):stddev nan
scalar SingleCell_Standalone.ue[1].ipv4.ip packetDropForwardingDisabled:vector(packetBytes):min inf
scalar SingleCell_Standalone.ue[1].ipv4.ip packetDropForwardingDisabled:vector(packetBytes):max -inf
scalar SingleCell_Standalone.ue[1].ipv4.ip packetDropForwardingDisabled:vector(packetBytes):starttime nan
scalar SingleCell_Standalone.ue[1].ipv4.ip packetDropForwardingDisabled:vector(packetBytes):endtime nan
scalar SingleCell_Standalone.ue[1].ipv4.ip packetDropNoInterfaceFound:vector(packetBytes):count 0
scalar SingleCell_Standalone.ue[1].ipv4.ip packetDropNoInterfaceFound:vector(packetBytes):sum 0
scalar SingleCell_Standalone.ue[1].ipv4.ip packetDropNoInterfaceFound:vector(packetBytes):sumweights 0
scalar SingleCell_Standalone.ue[1].ipv4.ip packetDropNoInterfaceFound:vector(packetBytes):mean -nan
scalar SingleCell_Standalone.ue[1].ipv4.ip packetDropNoInterfaceFound:vector(packetBytes):stddev nan
scalar SingleCell_Standalone.ue[1].ipv4.ip packetDropNoInterfaceFound:vector(packetBytes):min inf
scalar SingleCell_Standalone.ue[1].ipv4.ip packetDropNoInterfaceFound:vector(packetBytes):max -inf
scalar SingleCell_Standalone.ue[1].ipv4.ip packetDropNoInterfaceFound:vector(packetBytes):starttime nan
scalar SingleCell_Standalone.ue[1].ipv4.ip packetDropNoInterfaceFound:vector(packetBytes):endtime nan
scalar SingleCell_Standalone.ue[1].ipv4.ip packetDropNoRouteFound:vector(packetBytes):count 0
scalar SingleCell_Standalone.ue[1].ipv4.ip packetDropNoRouteFound:vector(packetBytes):sum 0
scalar SingleCell_Standalone.ue[1].ipv4.ip packetDropNoRouteFound:vector(packetBytes):sumweights 0
scalar SingleCell_Standalone.ue[1].ipv4.ip packetDropNoRouteFound:vector(packetBytes):mean -nan
scalar SingleCell_Standalone.ue[1].ipv4.ip packetDropNoRouteFound:vector(packetBytes):stddev nan
scalar SingleCell_Standalone.ue[1].ipv4.ip packetDropNoRouteFound:vector(packetBytes):min inf
scalar SingleCell_Standalone.ue[1].ipv4.ip packetDropNoRouteFound:vector(packetBytes):max -inf
scalar SingleCell_Standalone.ue[1].ipv4.ip packetDropNoRouteFound:vector(packetBytes):starttime nan
scalar SingleCell_Standalone.ue[1].ipv4.ip packetDropNoRouteFound:vector(packetBytes):endtime nan
scalar SingleCell_Standalone.ue[1].ipv4.ip packetDropUndefined:vector(packetBytes):count 0
scalar SingleCell_Standalone.ue[1].ipv4.ip packetDropUndefined:vector(packetBytes):sum 0
scalar SingleCell_Standalone.ue[1].ipv4.ip packetDropUndefined:vector(packetBytes):sumweights 0
scalar SingleCell_Standalone.ue[1].ipv4.ip packetDropUndefined:vector(packetBytes):mean -nan
scalar SingleCell_Standalone.ue[1].ipv4.ip packetDropUndefined:vector(packetBytes):stddev nan
scalar SingleCell_Standalone.ue[1].ipv4.ip packetDropUndefined:vector(packetBytes):min inf
scalar SingleCell_Standalone.ue[1].ipv4.ip packetDropUndefined:vector(packetBytes):max -inf
scalar SingleCell_Standalone.ue[1].ipv4.ip packetDropUndefined:vector(packetBytes):starttime nan
scalar SingleCell_Standalone.ue[1].ipv4.ip packetDropUndefined:vector(packetBytes):endtime nan
scalar SingleCell_Standalone.ue[1].ipv4.arp arpRequestSent:vector(packetBytes):count 0
scalar SingleCell_Standalone.ue[1].ipv4.arp arpRequestSent:vector(packetBytes):sum 0
scalar SingleCell_Standalone.ue[1].ipv4.arp arpRequestSent:vector(packetBytes):sumweights 0
scalar SingleCell_Standalone.ue[1].ipv4.arp arpRequestSent:vector(packetBytes):mean -nan
scalar SingleCell_Standalone.ue[1].ipv4.arp arpRequestSent:vector(packetBytes):stddev nan
scalar SingleCell_Standalone.ue[1].ipv4.arp arpRequestSent:vector(packetBytes):min inf
scalar SingleCell_Standalone.ue[1].ipv4.arp arpRequestSent:vector(packetBytes):max -inf
scalar SingleCell_Standalone.ue[1].ipv4.arp arpRequestSent:vector(packetBytes):starttime nan
scalar SingleCell_Standalone.ue[1].ipv4.arp arpRequestSent:vector(packetBytes):endtime nan
scalar SingleCell_Standalone.ue[1].ipv4.arp arpReplySent:vector(packetBytes):count 0
scalar SingleCell_Standalone.ue[1].ipv4.arp arpReplySent:vector(packetBytes):sum 0
scalar SingleCell_Standalone.ue[1].ipv4.arp arpReplySent:vector(packetBytes):sumweights 0
scalar SingleCell_Standalone.ue[1].ipv4.arp arpReplySent:vector(packetBytes):mean -nan
scalar SingleCell_Standalone.ue[1].ipv4.arp arpReplySent:vector(packetBytes):stddev nan
scalar SingleCell_Standalone.ue[1].ipv4.arp arpReplySent:vector(packetBytes):min inf
scalar SingleCell_Standalone.ue[1].ipv4.arp arpReplySent:vector(packetBytes):max -inf
scalar SingleCell_Standalone.ue[1].ipv4.arp arpReplySent:vector(packetBytes):starttime nan
scalar SingleCell_Standalone.ue[1].ipv4.arp arpReplySent:vector(packetBytes):endtime nan
scalar SingleCell_Standalone.ue[1].udp packetSent:vector(packetBytes):count 0
scalar SingleCell_Standalone.ue[1].udp packetSent:vector(packetBytes):sum 0
scalar SingleCell_Standalone.ue[1].udp packetSent:vector(packetBytes):sumweights 0
scalar SingleCell_Standalone.ue[1].udp packetSent:vector(packetBytes):mean -nan
scalar SingleCell_Standalone.ue[1].udp packetSent:vector(packetBytes):stddev nan
scalar SingleCell_Standalone.ue[1].udp packetSent:vector(packetBytes):min inf
scalar SingleCell_Standalone.ue[1].udp packetSent:vector(packetBytes):max -inf
scalar SingleCell_Standalone.ue[1].udp packetSent:vector(packetBytes):starttime nan
scalar SingleCell_Standalone.ue[1].udp packetSent:vector(packetBytes):endtime nan
scalar SingleCell_Standalone.ue[1].udp packetReceived:vector(packetBytes):count 2221
scalar SingleCell_Standalone.ue[1].udp packetReceived:vector(packetBytes):sum 106608
scalar SingleCell_Standalone.ue[1].udp packetReceived:vector(packetBytes):sumweights 2221
scalar SingleCell_Standalone.ue[1].udp packetReceived:vector(packetBytes):mean 48
scalar SingleCell_Standalone.ue[1].udp packetReceived:vector(packetBytes):stddev 0
scalar SingleCell_Standalone.ue[1].udp packetReceived:vector(packetBytes):min 48
scalar SingleCell_Standalone.ue[1].udp packetReceived:vector(packetBytes):max 48
scalar SingleCell_Standalone.ue[1].udp packetReceived:vector(packetBytes):starttime 0.040000000000000001
scalar SingleCell_Standalone.ue[1].udp packetReceived:vector(packetBytes):endtime 19.992000000000001
scalar SingleCell_Standalone.ue[1].udp passedUpPk:vector(count):count 2222
scalar SingleCell_Standalone.ue[1].udp passedUpPk:vector(count):sum 2467531
scalar SingleCell_Standalone.ue[1].udp passedUpPk:vector(count):sumweights 2222
scalar SingleCell_Standalone.ue[1].udp passedUpPk:vector(count):mean 1110.5
scalar SingleCell_Standalone.ue[1].udp passedUpPk:vector(count):stddev 641.58047040102463
scalar SingleCell_Standalone.ue[1].udp passedUpPk:vector(count):min 0
scalar SingleCell_Standalone.ue[1].udp passedUpPk:vector(count):max 2221
scalar SingleCell_Standalone.ue[1].udp passedUpPk:vector(count):starttime 0
scalar SingleCell_Standalone.ue[1].udp passedUpPk:vector(count):endtime 19.992000000000001
scalar SingleCell_Standalone.ue[1].udp droppedPkWrongPort:vector(count):count 1
scalar SingleCell_Standalone.ue[1].udp droppedPkWrongPort:vector(count):sum 0
scalar SingleCell_Standalone.ue[1].udp droppedPkWrongPort:vector(count):sumweights 1
scalar SingleCell_Standalone.ue[1].udp droppedPkWrongPort:vector(count):mean 0
scalar SingleCell_Standalone.ue[1].udp droppedPkWrongPort:vector(count):stddev nan
scalar SingleCell_Standalone.ue[1].udp droppedPkWrongPort:vector(count):min 0
scalar SingleCell_Standalone.ue[1].udp droppedPkWrongPort:vector(count):max 0
scalar SingleCell_Standalone.ue[1].udp droppedPkWrongPort:vector(count):starttime 0
scalar SingleCell_Standalone.ue[1].udp droppedPkWrongPort:vector(count):endtime 0
scalar SingleCell_Standalone.ue[1].udp droppedPkBadChecksum:vector(count):count 1
scalar SingleCell_Standalone.ue[1].udp droppedPkBadChecksum:vector(count):sum 0
scalar SingleCell_Standalone.ue[1].udp droppedPkBadChecksum:vector(count):sumweights 1
scalar SingleCell_Standalone.ue[1].udp droppedPkBadChecksum:vector(count):mean 0
scalar SingleCell_Standalone.ue[1].udp droppedPkBadChecksum:vector(count):stddev nan
scalar SingleCell_Standalone.ue[1].udp droppedPkBadChecksum:vector(count):min 0
scalar SingleCell_Standalone.ue[1].udp droppedPkBadChecksum:vector(count):max 0
scalar SingleCell_Standalone.ue[1].udp droppedPkBadChecksum:vector(count):starttime 0
scalar SingleCell_Standalone.ue[1].udp droppedPkBadChecksum:vector(count):endtime 0
scalar SingleCell_Standalone.ue[1].app[0] voipFrameDelay:vector:count 670
scalar SingleCell_Standalone.ue[1].app[0] voipFrameDelay:vector:sum 3.1282631344200067
scalar SingleCell_Standalone.ue[1].app[0] voipFrameDelay:vector:sumweights 670
scalar SingleCell_Standalone.ue[1].app[0] voipFrameDelay:vector:mean 0.0046690494543582192
scalar SingleCell_Standalone.ue[1].app[0] voipFrameDelay:vector:stddev 0.00021614798154009332
scalar SingleCell_Standalone.ue[1].app[0] voipFrameDelay:vector:min 0.0042653952590000002
scalar SingleCell_Standalone.ue[1].app[0] voipFrameDelay:vector:max 0.004955950802
scalar SingleCell_Standalone.ue[1].app[0] voipFrameDelay:vector:starttime 0.044999999999999998
scalar SingleCell_Standalone.ue[1].app[0] voipFrameDelay:vector:endtime 19.987000000000002
scalar SingleCell_Standalone.ue[1].app[0] voipReceivedThroughput:vector:count 670
scalar SingleCell_Standalone.ue[1].app[0] voipReceivedThroughput:vector:sum 907626.00882636569
scalar SingleCell_Standalone.ue[1].app[0] voipReceivedThroughput:vector:sumweights 670
scalar SingleCell_Standalone.ue[1].app[0] voipReceivedThroughput:vector:mean 1354.6656848154712
scalar SingleCell_Standalone.ue[1].app[0] voipReceivedThroughput:vector:stddev 319.16388495609306
scalar SingleCell_Standalone.ue[1].app[0] voipReceivedThroughput:vector:min 888.88888888888891
scalar SingleCell_Standalone.ue[1].app[0] voipReceivedThroughput:vector:max 1982.5479930191973
scalar SingleCell_Standalone.ue[1].app[0] voipReceivedThroughput:vector:starttime 0.044999999999999998
scalar SingleCell_Standalone.ue[1].app[0] voipReceivedThroughput:vector:endtime 19.987000000000002
scalar SingleCell_Standalone.ue[1].app[1] voipFrameDelay:vector:count 614
scalar SingleCell_Standalone.ue[1].app[1] voipFrameDelay:vector:sum 2.7825434158130085
scalar SingleCell_Standalone.ue[1].app[1] voipFrameDelay:vector:sumweights 614
scalar SingleCell_Standalone.ue[1].app[1] voipFrameDelay:vector:mean 0.0045318296674478967
scalar SingleCell_Standalone.ue[1].app[1] voipFrameDelay:vector:stddev 0.00016304082105849941
scalar SingleCell_Standalone.ue[1].app[1] voipFrameDelay:vector:min 0.0041807039299999998
scalar SingleCell_Standalone.ue[1].app[1] voipFrameDelay:vector:max 0.0048075577809999995
scalar SingleCell_Standalone.ue[1].app[1] voipFrameDelay:vector:starttime 0.042000000000000003
scalar SingleCell_Standalone.ue[1].app[1] voipFrameDelay:vector:endtime 19.992000000000001
scalar SingleCell_Standalone.ue[1].app[1] voipReceivedThroughput:vector:count 614
scalar SingleCell_Standalone.ue[1].app[1] voipReceivedThroughput:vector:sum 637256.28831033269
scalar SingleCell_Standalone.ue[1].app[1] voipReceivedThroughput:vector:sumweights 614
scalar SingleCell_Standalone.ue[1].app[1] voipReceivedThroughput:vector:mean 1037.8766910591737
scalar SingleCell_Standalone.ue[1].app[1] voipReceivedThroughput:vector:stddev 323.4484255189397
scalar SingleCell_Standalone.ue[1].app[1] voipReceivedThroughput:vector:min 75.642965204236006
scalar SingleCell_Standalone.ue[1].app[1] voipReceivedThroughput:vector:max 1568.6274509803923
scalar SingleCell_Standalone.ue[1].app[1] voipReceivedThroughput:vector:starttime 0.042000000000000003
scalar SingleCell_Standalone.ue[1].app[1] voipReceivedThroughput:vector:endtime 19.992000000000001
scalar SingleCell_Standalone.ue[1].app[2] voipFrameDelay:vector:count 552
scalar SingleCell_Standalone.ue[1].app[2] voipFrameDelay:vector:sum 2.4172618754710018
scalar SingleCell_Standalone.ue[1].app[2] voipFrameDelay:vector:sumweights 552
scalar SingleCell_Standalone.ue[1].app[2] voipFrameDelay:vector:mean 0.0043790976004909454
scalar SingleCell_Standalone.ue[1].app[2] voipFrameDelay:vector:stddev 0.00023201366879494815
scalar SingleCell_Standalone.ue[1].app[2] voipFrameDelay:vector:min 0.0040195403450000002
scalar SingleCell_Standalone.ue[1].app[2] voipFrameDelay:vector:max 0.0049895883300000001
scalar SingleCell_Standalone.ue[1].app[2] voipFrameDelay:vector:starttime 0.040000000000000001
scalar SingleCell_Standalone.ue[1].app[2] voipFrameDelay:vector:endtime 19.888999999999999
scalar SingleCell_Standalone.ue[1].app[2] voipReceivedThroughput:vector:count 552
scalar SingleCell_Standalone.ue[1].app[2] voipReceivedThroughput:vector:sum 671191.23327523877
scalar SingleCell_Standalone.ue[1].app[2] voipReceivedThroughput:vector:sumweights 552
scalar SingleCell_Standalone.ue[1].app[2] voipReceivedThroughput:vector:mean 1215.9261472377514
scalar SingleCell_Standalone.ue[1].app[2] voipReceivedThroughput:vector:stddev 268.81275697912895
scalar SingleCell_Standalone.ue[1].app[2] voipReceivedThroughput:vector:min 439.56043956043953
scalar SingleCell_Standalone.ue[1].app[2] voipReceivedThroughput:vector:max 1838.2073680212686
scalar SingleCell_Standalone.ue[1].app[2] voipReceivedThroughput:vector:starttime 0.040000000000000001
scalar SingleCell_Standalone.ue[1].app[2] voipReceivedThroughput:vector:endtime 19.888999999999999
scalar SingleCell_Standalone.ue[1].app[3] voipFrameDelay:vector:count 385
scalar SingleCell_Standalone.ue[1].app[3] voipFrameDelay:vector:sum 1.7481626495500067
scalar SingleCell_Standalone.ue[1].app[3] voipFrameDelay:vector:sumweights 385
scalar SingleCell_Standalone.ue[1].app[3] voipFrameDelay:vector:mean 0.0045406822066233936
scalar SingleCell_Standalone.ue[1].app[3] voipFrameDelay:vector:stddev 0.00025318805543052573
scalar SingleCell_Standalone.ue[1].app[3] voipFrameDelay:vector:min 0.004075927002
scalar SingleCell_Standalone.ue[1].app[3] voipFrameDelay:vector:max 0.0049747745630000003
scalar SingleCell_Standalone.ue[1].app[3] voipFrameDelay:vector:starttime 0.052999999999999999
scalar SingleCell_Standalone.ue[1].app[3] voipFrameDelay:vector:endtime 16.853000000000002
scalar SingleCell_Standalone.ue[1].app[3] voipReceivedThroughput:vector:count 385
scalar SingleCell_Standalone.ue[1].app[3] voipReceivedThroughput:vector:sum 368730.89019343071
scalar SingleCell_Standalone.ue[1].app[3] voipReceivedThroughput:vector:sumweights 385
scalar SingleCell_Standalone.ue[1].app[3] voipReceivedThroughput:vector:mean 957.7425719309889
scalar SingleCell_Standalone.ue[1].app[3] voipReceivedThroughput:vector:stddev 174.45849751949075
scalar SingleCell_Standalone.ue[1].app[3] voipReceivedThroughput:vector:min 642.00217627856375
scalar SingleCell_Standalone.ue[1].app[3] voipReceivedThroughput:vector:max 1774.7440273037544
scalar SingleCell_Standalone.ue[1].app[3] voipReceivedThroughput:vector:starttime 0.052999999999999999
scalar SingleCell_Standalone.ue[1].app[3] voipReceivedThroughput:vector:endtime 16.853000000000002

