version 3
run RnisTest-0-20260712-21:07:43-257142
attr configname RnisTest
attr datetime 20260712-21:07:43
attr datetimef 20260712-210743
attr experiment RnisTest
attr inifile omnetpp.ini
attr iterationvars ""
attr iterationvarsd ""
attr iterationvarsf ""
attr measurement ""
attr network simu5g.simulations.nr.mec.rnisTest.RnisTest
attr processid 257142
attr repetition 0
attr replication #0
attr resultdir results
attr runnumber 0
attr seedset 0
config **.param-recording false
config image-path /home/andras/projects/Simu5G-fork/simu5g-fork/images
config output-scalar-file results/omnetpp.ini-RnisTest-#0.sca
config output-scalar-precision 17
config output-vector-file results/omnetpp.ini-RnisTest-#0.vec
config output-vector-precision 17
config record-eventlog false
config sim-time-limit 40s
config network simu5g.simulations.nr.mec.rnisTest.RnisTest
config *.carrierAggregation.numComponentCarriers 1
config *.carrierAggregation.componentCarrier[0].numBands 25
config *.gNodeB1.cellularNic.numCarriers 1
config *.gNodeB1.cellularNic.channelModel[0].componentCarrierModule "\"carrierAggregation.componentCarrier[0]\""
config *.ue[*].cellularNic.numCarriers 1
config *.ue[*].cellularNic.nrChannelModel[0].componentCarrierModule "\"carrierAggregation.componentCarrier[0]\""
config **.mobility.constraintAreaMinZ 0m
config **.mobility.constraintAreaMaxZ 0m
config **.mobility.initFromDisplayString false
config *.gNodeB1.mobility.initialX 140m
config *.gNodeB1.mobility.initialY 250m
config *.numUes 1
config *.ue[0].mobility.initialX 180m
config *.ue[0].mobility.initialY 50m
config *.ue[0].mobility.typename LinearMobility
config *.ue[0].mobility.updateInterval 0.05s
config *.ue[0].mobility.initialMovementHeading 90deg
config *.ue[0].mobility.speed 10mps
config *.ue[*].servingNodeId 0
config *.ue[*].nrServingNodeId 1
config **.tcp.typename Tcp
config **.tcp.advertisedWindow 65535
config **.tcp.tcpAlgorithmClass "\"TcpReno\""
config **.tcp.sackSupport true
config *.ue[*].numApps 2
config *.ue[*].app[0].typename DeviceApp
config *.ue[*].app[0].localPort 4500
config *.ue[*].app[0].ualcmpAddress "\"ualcmp\""
config *.ue[*].app[0].ualcmpPort 1000
config *.ue[*].app[0].appPackageSource "\"ApplicationDescriptors/RnisTestApp.json\""
config *.ue[*].app[1].typename UeRnisTestApp
config *.ue[*].app[1].deviceAppAddress "\"ue[\"+string(ancestorIndex(1))+\"]\""
config *.ue[*].app[1].deviceAppPort 4500
config *.ue[*].app[1].startTime 1s
config *.ue[*].app[1].stopTime 30s
config *.mecHost.maxMecApps 100
config *.mecHost.maxRam 32GB
config *.mecHost.maxDisk 100TB
config *.mecHost.maxCpuSpeed 400000
config *.gNodeB*.mecHost "\"mecHost\""
config *.mecHost.bsList "[\"gNodeB1\"]"
config *.mecHost.mecPlatformManager.mecOrchestrator "\"mecOrchestrator\""
config **.hasRniSupport true
config *.mecHost.mecPlatform.numMecServices 1
config *.mecHost.mecPlatform.mecService[0].typename RniService
config *.mecHost.mecPlatform.mecService[0].localAddress "\"mecHost.virtualisationInfrastructure\""
config *.mecHost.mecPlatform.mecService[0].localPort 10020
config *.mecHost.mecPlatform.mecService[0].requestServiceTime 100us
config *.mecHost.mecPlatform.serviceRegistry.localAddress "\"mecHost.virtualisationInfrastructure\""
config *.mecHost.mecPlatform.serviceRegistry.localPort 10021
config **.mecOrchestrator.mecHostList "[\"mecHost\"]"
config cmdenv-autoflush true
config debug-on-errors false
config print-undisposed true
config sim-time-limit 40s
config warmup-period 0s
config repeat 1
config seed-set 0
config output-scalar-file results/RnisTest/0.sca
config output-vector-file results/RnisTest/0.vec
config **.routingRecorder.enabled false
config **.scalar-recording false
config **.vector-recording false
config *.configurator.config "xmldoc(\"./demo.xml\")"
config **.fbPeriod 40tti
config **.amcType "\"NrAmc\""
config **.pilotMode "\"ROBUST_CQI\""
config **.targetBler 0.01
config **.blerShift 5

scalar RnisTest.upf.lo[0].lo rcvdPkFromHl:vector(packetBytes):count 0
scalar RnisTest.upf.lo[0].lo rcvdPkFromHl:vector(packetBytes):sum 0
scalar RnisTest.upf.lo[0].lo rcvdPkFromHl:vector(packetBytes):sumweights 0
scalar RnisTest.upf.lo[0].lo rcvdPkFromHl:vector(packetBytes):mean -nan
scalar RnisTest.upf.lo[0].lo rcvdPkFromHl:vector(packetBytes):stddev nan
scalar RnisTest.upf.lo[0].lo rcvdPkFromHl:vector(packetBytes):min inf
scalar RnisTest.upf.lo[0].lo rcvdPkFromHl:vector(packetBytes):max -inf
scalar RnisTest.upf.lo[0].lo rcvdPkFromHl:vector(packetBytes):starttime nan
scalar RnisTest.upf.lo[0].lo rcvdPkFromHl:vector(packetBytes):endtime nan
scalar RnisTest.upf.lo[0].lo passedUpPk:vector(packetBytes):count 0
scalar RnisTest.upf.lo[0].lo passedUpPk:vector(packetBytes):sum 0
scalar RnisTest.upf.lo[0].lo passedUpPk:vector(packetBytes):sumweights 0
scalar RnisTest.upf.lo[0].lo passedUpPk:vector(packetBytes):mean -nan
scalar RnisTest.upf.lo[0].lo passedUpPk:vector(packetBytes):stddev nan
scalar RnisTest.upf.lo[0].lo passedUpPk:vector(packetBytes):min inf
scalar RnisTest.upf.lo[0].lo passedUpPk:vector(packetBytes):max -inf
scalar RnisTest.upf.lo[0].lo passedUpPk:vector(packetBytes):starttime nan
scalar RnisTest.upf.lo[0].lo passedUpPk:vector(packetBytes):endtime nan
scalar RnisTest.upf.lo[0] packetDropInterfaceDown:vector(packetBytes):count 0
scalar RnisTest.upf.lo[0] packetDropInterfaceDown:vector(packetBytes):sum 0
scalar RnisTest.upf.lo[0] packetDropInterfaceDown:vector(packetBytes):sumweights 0
scalar RnisTest.upf.lo[0] packetDropInterfaceDown:vector(packetBytes):mean -nan
scalar RnisTest.upf.lo[0] packetDropInterfaceDown:vector(packetBytes):stddev nan
scalar RnisTest.upf.lo[0] packetDropInterfaceDown:vector(packetBytes):min inf
scalar RnisTest.upf.lo[0] packetDropInterfaceDown:vector(packetBytes):max -inf
scalar RnisTest.upf.lo[0] packetDropInterfaceDown:vector(packetBytes):starttime nan
scalar RnisTest.upf.lo[0] packetDropInterfaceDown:vector(packetBytes):endtime nan
scalar RnisTest.upf.lo[0] packetDropNoCarrier:vector(packetBytes):count 0
scalar RnisTest.upf.lo[0] packetDropNoCarrier:vector(packetBytes):sum 0
scalar RnisTest.upf.lo[0] packetDropNoCarrier:vector(packetBytes):sumweights 0
scalar RnisTest.upf.lo[0] packetDropNoCarrier:vector(packetBytes):mean -nan
scalar RnisTest.upf.lo[0] packetDropNoCarrier:vector(packetBytes):stddev nan
scalar RnisTest.upf.lo[0] packetDropNoCarrier:vector(packetBytes):min inf
scalar RnisTest.upf.lo[0] packetDropNoCarrier:vector(packetBytes):max -inf
scalar RnisTest.upf.lo[0] packetDropNoCarrier:vector(packetBytes):starttime nan
scalar RnisTest.upf.lo[0] packetDropNoCarrier:vector(packetBytes):endtime nan
scalar RnisTest.upf.ppp[0].queue queueLength:vector:count 0
scalar RnisTest.upf.ppp[0].queue queueLength:vector:sum 0
scalar RnisTest.upf.ppp[0].queue queueLength:vector:sumweights 0
scalar RnisTest.upf.ppp[0].queue queueLength:vector:mean -nan
scalar RnisTest.upf.ppp[0].queue queueLength:vector:stddev nan
scalar RnisTest.upf.ppp[0].queue queueLength:vector:min inf
scalar RnisTest.upf.ppp[0].queue queueLength:vector:max -inf
scalar RnisTest.upf.ppp[0].queue queueLength:vector:starttime nan
scalar RnisTest.upf.ppp[0].queue queueLength:vector:endtime nan
scalar RnisTest.upf.ppp[0].queue queueBitLength:vector:count 0
scalar RnisTest.upf.ppp[0].queue queueBitLength:vector:sum 0
scalar RnisTest.upf.ppp[0].queue queueBitLength:vector:sumweights 0
scalar RnisTest.upf.ppp[0].queue queueBitLength:vector:mean -nan
scalar RnisTest.upf.ppp[0].queue queueBitLength:vector:stddev nan
scalar RnisTest.upf.ppp[0].queue queueBitLength:vector:min inf
scalar RnisTest.upf.ppp[0].queue queueBitLength:vector:max -inf
scalar RnisTest.upf.ppp[0].queue queueBitLength:vector:starttime nan
scalar RnisTest.upf.ppp[0].queue queueBitLength:vector:endtime nan
scalar RnisTest.upf.ppp[0].queue queueingTime:vector:count 0
scalar RnisTest.upf.ppp[0].queue queueingTime:vector:sum 0
scalar RnisTest.upf.ppp[0].queue queueingTime:vector:sumweights 0
scalar RnisTest.upf.ppp[0].queue queueingTime:vector:mean -nan
scalar RnisTest.upf.ppp[0].queue queueingTime:vector:stddev nan
scalar RnisTest.upf.ppp[0].queue queueingTime:vector:min inf
scalar RnisTest.upf.ppp[0].queue queueingTime:vector:max -inf
scalar RnisTest.upf.ppp[0].queue queueingTime:vector:starttime nan
scalar RnisTest.upf.ppp[0].queue queueingTime:vector:endtime nan
scalar RnisTest.upf.ppp[0].queue incomingPacketLengths:vector:count 0
scalar RnisTest.upf.ppp[0].queue incomingPacketLengths:vector:sum 0
scalar RnisTest.upf.ppp[0].queue incomingPacketLengths:vector:sumweights 0
scalar RnisTest.upf.ppp[0].queue incomingPacketLengths:vector:mean -nan
scalar RnisTest.upf.ppp[0].queue incomingPacketLengths:vector:stddev nan
scalar RnisTest.upf.ppp[0].queue incomingPacketLengths:vector:min inf
scalar RnisTest.upf.ppp[0].queue incomingPacketLengths:vector:max -inf
scalar RnisTest.upf.ppp[0].queue incomingPacketLengths:vector:starttime nan
scalar RnisTest.upf.ppp[0].queue incomingPacketLengths:vector:endtime nan
scalar RnisTest.upf.ppp[0].queue incomingDataRate:vector:count 0
scalar RnisTest.upf.ppp[0].queue incomingDataRate:vector:sum 0
scalar RnisTest.upf.ppp[0].queue incomingDataRate:vector:sumweights 0
scalar RnisTest.upf.ppp[0].queue incomingDataRate:vector:mean -nan
scalar RnisTest.upf.ppp[0].queue incomingDataRate:vector:stddev nan
scalar RnisTest.upf.ppp[0].queue incomingDataRate:vector:min inf
scalar RnisTest.upf.ppp[0].queue incomingDataRate:vector:max -inf
scalar RnisTest.upf.ppp[0].queue incomingDataRate:vector:starttime nan
scalar RnisTest.upf.ppp[0].queue incomingDataRate:vector:endtime nan
scalar RnisTest.upf.ppp[0].queue outgoingPacketLengths:vector:count 0
scalar RnisTest.upf.ppp[0].queue outgoingPacketLengths:vector:sum 0
scalar RnisTest.upf.ppp[0].queue outgoingPacketLengths:vector:sumweights 0
scalar RnisTest.upf.ppp[0].queue outgoingPacketLengths:vector:mean -nan
scalar RnisTest.upf.ppp[0].queue outgoingPacketLengths:vector:stddev nan
scalar RnisTest.upf.ppp[0].queue outgoingPacketLengths:vector:min inf
scalar RnisTest.upf.ppp[0].queue outgoingPacketLengths:vector:max -inf
scalar RnisTest.upf.ppp[0].queue outgoingPacketLengths:vector:starttime nan
scalar RnisTest.upf.ppp[0].queue outgoingPacketLengths:vector:endtime nan
scalar RnisTest.upf.ppp[0].queue outgoingDataRate:vector:count 0
scalar RnisTest.upf.ppp[0].queue outgoingDataRate:vector:sum 0
scalar RnisTest.upf.ppp[0].queue outgoingDataRate:vector:sumweights 0
scalar RnisTest.upf.ppp[0].queue outgoingDataRate:vector:mean -nan
scalar RnisTest.upf.ppp[0].queue outgoingDataRate:vector:stddev nan
scalar RnisTest.upf.ppp[0].queue outgoingDataRate:vector:min inf
scalar RnisTest.upf.ppp[0].queue outgoingDataRate:vector:max -inf
scalar RnisTest.upf.ppp[0].queue outgoingDataRate:vector:starttime nan
scalar RnisTest.upf.ppp[0].queue outgoingDataRate:vector:endtime nan
scalar RnisTest.upf.ppp[0].queue droppedPacketLengthsQueueOverflow:vector:count 0
scalar RnisTest.upf.ppp[0].queue droppedPacketLengthsQueueOverflow:vector:sum 0
scalar RnisTest.upf.ppp[0].queue droppedPacketLengthsQueueOverflow:vector:sumweights 0
scalar RnisTest.upf.ppp[0].queue droppedPacketLengthsQueueOverflow:vector:mean -nan
scalar RnisTest.upf.ppp[0].queue droppedPacketLengthsQueueOverflow:vector:stddev nan
scalar RnisTest.upf.ppp[0].queue droppedPacketLengthsQueueOverflow:vector:min inf
scalar RnisTest.upf.ppp[0].queue droppedPacketLengthsQueueOverflow:vector:max -inf
scalar RnisTest.upf.ppp[0].queue droppedPacketLengthsQueueOverflow:vector:starttime nan
scalar RnisTest.upf.ppp[0].queue droppedPacketLengthsQueueOverflow:vector:endtime nan
scalar RnisTest.upf.ppp[0].queue flowQueueingTime:vector:count 0
scalar RnisTest.upf.ppp[0].queue flowQueueingTime:vector:sum 0
scalar RnisTest.upf.ppp[0].queue flowQueueingTime:vector:sumweights 0
scalar RnisTest.upf.ppp[0].queue flowQueueingTime:vector:mean -nan
scalar RnisTest.upf.ppp[0].queue flowQueueingTime:vector:stddev nan
scalar RnisTest.upf.ppp[0].queue flowQueueingTime:vector:min inf
scalar RnisTest.upf.ppp[0].queue flowQueueingTime:vector:max -inf
scalar RnisTest.upf.ppp[0].queue flowQueueingTime:vector:starttime nan
scalar RnisTest.upf.ppp[0].queue flowQueueingTime:vector:endtime nan
scalar RnisTest.upf.ppp[0].queue flowIncomingDataRate:vector:count 0
scalar RnisTest.upf.ppp[0].queue flowIncomingDataRate:vector:sum 0
scalar RnisTest.upf.ppp[0].queue flowIncomingDataRate:vector:sumweights 0
scalar RnisTest.upf.ppp[0].queue flowIncomingDataRate:vector:mean -nan
scalar RnisTest.upf.ppp[0].queue flowIncomingDataRate:vector:stddev nan
scalar RnisTest.upf.ppp[0].queue flowIncomingDataRate:vector:min inf
scalar RnisTest.upf.ppp[0].queue flowIncomingDataRate:vector:max -inf
scalar RnisTest.upf.ppp[0].queue flowIncomingDataRate:vector:starttime nan
scalar RnisTest.upf.ppp[0].queue flowIncomingDataRate:vector:endtime nan
scalar RnisTest.upf.ppp[0].queue flowOutgoingDataRate:vector:count 0
scalar RnisTest.upf.ppp[0].queue flowOutgoingDataRate:vector:sum 0
scalar RnisTest.upf.ppp[0].queue flowOutgoingDataRate:vector:sumweights 0
scalar RnisTest.upf.ppp[0].queue flowOutgoingDataRate:vector:mean -nan
scalar RnisTest.upf.ppp[0].queue flowOutgoingDataRate:vector:stddev nan
scalar RnisTest.upf.ppp[0].queue flowOutgoingDataRate:vector:min inf
scalar RnisTest.upf.ppp[0].queue flowOutgoingDataRate:vector:max -inf
scalar RnisTest.upf.ppp[0].queue flowOutgoingDataRate:vector:starttime nan
scalar RnisTest.upf.ppp[0].queue flowOutgoingDataRate:vector:endtime nan
scalar RnisTest.upf.ppp[0].ppp transmissionState:vector:count 0
scalar RnisTest.upf.ppp[0].ppp transmissionState:vector:sum 0
scalar RnisTest.upf.ppp[0].ppp transmissionState:vector:sumweights 0
scalar RnisTest.upf.ppp[0].ppp transmissionState:vector:mean -nan
scalar RnisTest.upf.ppp[0].ppp transmissionState:vector:stddev nan
scalar RnisTest.upf.ppp[0].ppp transmissionState:vector:min inf
scalar RnisTest.upf.ppp[0].ppp transmissionState:vector:max -inf
scalar RnisTest.upf.ppp[0].ppp transmissionState:vector:starttime nan
scalar RnisTest.upf.ppp[0].ppp transmissionState:vector:endtime nan
scalar RnisTest.upf.ppp[0].ppp txPk:vector(packetBytes):count 0
scalar RnisTest.upf.ppp[0].ppp txPk:vector(packetBytes):sum 0
scalar RnisTest.upf.ppp[0].ppp txPk:vector(packetBytes):sumweights 0
scalar RnisTest.upf.ppp[0].ppp txPk:vector(packetBytes):mean -nan
scalar RnisTest.upf.ppp[0].ppp txPk:vector(packetBytes):stddev nan
scalar RnisTest.upf.ppp[0].ppp txPk:vector(packetBytes):min inf
scalar RnisTest.upf.ppp[0].ppp txPk:vector(packetBytes):max -inf
scalar RnisTest.upf.ppp[0].ppp txPk:vector(packetBytes):starttime nan
scalar RnisTest.upf.ppp[0].ppp txPk:vector(packetBytes):endtime nan
scalar RnisTest.upf.ppp[0].ppp rxPkOk:vector(packetBytes):count 0
scalar RnisTest.upf.ppp[0].ppp rxPkOk:vector(packetBytes):sum 0
scalar RnisTest.upf.ppp[0].ppp rxPkOk:vector(packetBytes):sumweights 0
scalar RnisTest.upf.ppp[0].ppp rxPkOk:vector(packetBytes):mean -nan
scalar RnisTest.upf.ppp[0].ppp rxPkOk:vector(packetBytes):stddev nan
scalar RnisTest.upf.ppp[0].ppp rxPkOk:vector(packetBytes):min inf
scalar RnisTest.upf.ppp[0].ppp rxPkOk:vector(packetBytes):max -inf
scalar RnisTest.upf.ppp[0].ppp rxPkOk:vector(packetBytes):starttime nan
scalar RnisTest.upf.ppp[0].ppp rxPkOk:vector(packetBytes):endtime nan
scalar RnisTest.upf.ppp[0].ppp packetDropIncorrectlyReceived:vector(packetBytes):count 0
scalar RnisTest.upf.ppp[0].ppp packetDropIncorrectlyReceived:vector(packetBytes):sum 0
scalar RnisTest.upf.ppp[0].ppp packetDropIncorrectlyReceived:vector(packetBytes):sumweights 0
scalar RnisTest.upf.ppp[0].ppp packetDropIncorrectlyReceived:vector(packetBytes):mean -nan
scalar RnisTest.upf.ppp[0].ppp packetDropIncorrectlyReceived:vector(packetBytes):stddev nan
scalar RnisTest.upf.ppp[0].ppp packetDropIncorrectlyReceived:vector(packetBytes):min inf
scalar RnisTest.upf.ppp[0].ppp packetDropIncorrectlyReceived:vector(packetBytes):max -inf
scalar RnisTest.upf.ppp[0].ppp packetDropIncorrectlyReceived:vector(packetBytes):starttime nan
scalar RnisTest.upf.ppp[0].ppp packetDropIncorrectlyReceived:vector(packetBytes):endtime nan
scalar RnisTest.upf.ppp[0].ppp packetDropInterfaceDown:vector(packetBytes):count 0
scalar RnisTest.upf.ppp[0].ppp packetDropInterfaceDown:vector(packetBytes):sum 0
scalar RnisTest.upf.ppp[0].ppp packetDropInterfaceDown:vector(packetBytes):sumweights 0
scalar RnisTest.upf.ppp[0].ppp packetDropInterfaceDown:vector(packetBytes):mean -nan
scalar RnisTest.upf.ppp[0].ppp packetDropInterfaceDown:vector(packetBytes):stddev nan
scalar RnisTest.upf.ppp[0].ppp packetDropInterfaceDown:vector(packetBytes):min inf
scalar RnisTest.upf.ppp[0].ppp packetDropInterfaceDown:vector(packetBytes):max -inf
scalar RnisTest.upf.ppp[0].ppp packetDropInterfaceDown:vector(packetBytes):starttime nan
scalar RnisTest.upf.ppp[0].ppp packetDropInterfaceDown:vector(packetBytes):endtime nan
scalar RnisTest.upf.ppp[0].ppp rcvdPkFromHl:vector(packetBytes):count 0
scalar RnisTest.upf.ppp[0].ppp rcvdPkFromHl:vector(packetBytes):sum 0
scalar RnisTest.upf.ppp[0].ppp rcvdPkFromHl:vector(packetBytes):sumweights 0
scalar RnisTest.upf.ppp[0].ppp rcvdPkFromHl:vector(packetBytes):mean -nan
scalar RnisTest.upf.ppp[0].ppp rcvdPkFromHl:vector(packetBytes):stddev nan
scalar RnisTest.upf.ppp[0].ppp rcvdPkFromHl:vector(packetBytes):min inf
scalar RnisTest.upf.ppp[0].ppp rcvdPkFromHl:vector(packetBytes):max -inf
scalar RnisTest.upf.ppp[0].ppp rcvdPkFromHl:vector(packetBytes):starttime nan
scalar RnisTest.upf.ppp[0].ppp rcvdPkFromHl:vector(packetBytes):endtime nan
scalar RnisTest.upf.ppp[0].ppp passedUpPk:vector(packetBytes):count 0
scalar RnisTest.upf.ppp[0].ppp passedUpPk:vector(packetBytes):sum 0
scalar RnisTest.upf.ppp[0].ppp passedUpPk:vector(packetBytes):sumweights 0
scalar RnisTest.upf.ppp[0].ppp passedUpPk:vector(packetBytes):mean -nan
scalar RnisTest.upf.ppp[0].ppp passedUpPk:vector(packetBytes):stddev nan
scalar RnisTest.upf.ppp[0].ppp passedUpPk:vector(packetBytes):min inf
scalar RnisTest.upf.ppp[0].ppp passedUpPk:vector(packetBytes):max -inf
scalar RnisTest.upf.ppp[0].ppp passedUpPk:vector(packetBytes):starttime nan
scalar RnisTest.upf.ppp[0].ppp passedUpPk:vector(packetBytes):endtime nan
scalar RnisTest.upf.ppp[0] packetDropInterfaceDown:vector(packetBytes):count 0
scalar RnisTest.upf.ppp[0] packetDropInterfaceDown:vector(packetBytes):sum 0
scalar RnisTest.upf.ppp[0] packetDropInterfaceDown:vector(packetBytes):sumweights 0
scalar RnisTest.upf.ppp[0] packetDropInterfaceDown:vector(packetBytes):mean -nan
scalar RnisTest.upf.ppp[0] packetDropInterfaceDown:vector(packetBytes):stddev nan
scalar RnisTest.upf.ppp[0] packetDropInterfaceDown:vector(packetBytes):min inf
scalar RnisTest.upf.ppp[0] packetDropInterfaceDown:vector(packetBytes):max -inf
scalar RnisTest.upf.ppp[0] packetDropInterfaceDown:vector(packetBytes):starttime nan
scalar RnisTest.upf.ppp[0] packetDropInterfaceDown:vector(packetBytes):endtime nan
scalar RnisTest.upf.ppp[0] packetDropNoCarrier:vector(packetBytes):count 0
scalar RnisTest.upf.ppp[0] packetDropNoCarrier:vector(packetBytes):sum 0
scalar RnisTest.upf.ppp[0] packetDropNoCarrier:vector(packetBytes):sumweights 0
scalar RnisTest.upf.ppp[0] packetDropNoCarrier:vector(packetBytes):mean -nan
scalar RnisTest.upf.ppp[0] packetDropNoCarrier:vector(packetBytes):stddev nan
scalar RnisTest.upf.ppp[0] packetDropNoCarrier:vector(packetBytes):min inf
scalar RnisTest.upf.ppp[0] packetDropNoCarrier:vector(packetBytes):max -inf
scalar RnisTest.upf.ppp[0] packetDropNoCarrier:vector(packetBytes):starttime nan
scalar RnisTest.upf.ppp[0] packetDropNoCarrier:vector(packetBytes):endtime nan
scalar RnisTest.upf.ipv4.ip packetDropAddressResolutionFailed:vector(packetBytes):count 0
scalar RnisTest.upf.ipv4.ip packetDropAddressResolutionFailed:vector(packetBytes):sum 0
scalar RnisTest.upf.ipv4.ip packetDropAddressResolutionFailed:vector(packetBytes):sumweights 0
scalar RnisTest.upf.ipv4.ip packetDropAddressResolutionFailed:vector(packetBytes):mean -nan
scalar RnisTest.upf.ipv4.ip packetDropAddressResolutionFailed:vector(packetBytes):stddev nan
scalar RnisTest.upf.ipv4.ip packetDropAddressResolutionFailed:vector(packetBytes):min inf
scalar RnisTest.upf.ipv4.ip packetDropAddressResolutionFailed:vector(packetBytes):max -inf
scalar RnisTest.upf.ipv4.ip packetDropAddressResolutionFailed:vector(packetBytes):starttime nan
scalar RnisTest.upf.ipv4.ip packetDropAddressResolutionFailed:vector(packetBytes):endtime nan
scalar RnisTest.upf.ipv4.ip packetDropHopLimitReached:vector(packetBytes):count 0
scalar RnisTest.upf.ipv4.ip packetDropHopLimitReached:vector(packetBytes):sum 0
scalar RnisTest.upf.ipv4.ip packetDropHopLimitReached:vector(packetBytes):sumweights 0
scalar RnisTest.upf.ipv4.ip packetDropHopLimitReached:vector(packetBytes):mean -nan
scalar RnisTest.upf.ipv4.ip packetDropHopLimitReached:vector(packetBytes):stddev nan
scalar RnisTest.upf.ipv4.ip packetDropHopLimitReached:vector(packetBytes):min inf
scalar RnisTest.upf.ipv4.ip packetDropHopLimitReached:vector(packetBytes):max -inf
scalar RnisTest.upf.ipv4.ip packetDropHopLimitReached:vector(packetBytes):starttime nan
scalar RnisTest.upf.ipv4.ip packetDropHopLimitReached:vector(packetBytes):endtime nan
scalar RnisTest.upf.ipv4.ip packetDropForwardingDisabled:vector(packetBytes):count 0
scalar RnisTest.upf.ipv4.ip packetDropForwardingDisabled:vector(packetBytes):sum 0
scalar RnisTest.upf.ipv4.ip packetDropForwardingDisabled:vector(packetBytes):sumweights 0
scalar RnisTest.upf.ipv4.ip packetDropForwardingDisabled:vector(packetBytes):mean -nan
scalar RnisTest.upf.ipv4.ip packetDropForwardingDisabled:vector(packetBytes):stddev nan
scalar RnisTest.upf.ipv4.ip packetDropForwardingDisabled:vector(packetBytes):min inf
scalar RnisTest.upf.ipv4.ip packetDropForwardingDisabled:vector(packetBytes):max -inf
scalar RnisTest.upf.ipv4.ip packetDropForwardingDisabled:vector(packetBytes):starttime nan
scalar RnisTest.upf.ipv4.ip packetDropForwardingDisabled:vector(packetBytes):endtime nan
scalar RnisTest.upf.ipv4.ip packetDropNoInterfaceFound:vector(packetBytes):count 0
scalar RnisTest.upf.ipv4.ip packetDropNoInterfaceFound:vector(packetBytes):sum 0
scalar RnisTest.upf.ipv4.ip packetDropNoInterfaceFound:vector(packetBytes):sumweights 0
scalar RnisTest.upf.ipv4.ip packetDropNoInterfaceFound:vector(packetBytes):mean -nan
scalar RnisTest.upf.ipv4.ip packetDropNoInterfaceFound:vector(packetBytes):stddev nan
scalar RnisTest.upf.ipv4.ip packetDropNoInterfaceFound:vector(packetBytes):min inf
scalar RnisTest.upf.ipv4.ip packetDropNoInterfaceFound:vector(packetBytes):max -inf
scalar RnisTest.upf.ipv4.ip packetDropNoInterfaceFound:vector(packetBytes):starttime nan
scalar RnisTest.upf.ipv4.ip packetDropNoInterfaceFound:vector(packetBytes):endtime nan
scalar RnisTest.upf.ipv4.ip packetDropNoRouteFound:vector(packetBytes):count 0
scalar RnisTest.upf.ipv4.ip packetDropNoRouteFound:vector(packetBytes):sum 0
scalar RnisTest.upf.ipv4.ip packetDropNoRouteFound:vector(packetBytes):sumweights 0
scalar RnisTest.upf.ipv4.ip packetDropNoRouteFound:vector(packetBytes):mean -nan
scalar RnisTest.upf.ipv4.ip packetDropNoRouteFound:vector(packetBytes):stddev nan
scalar RnisTest.upf.ipv4.ip packetDropNoRouteFound:vector(packetBytes):min inf
scalar RnisTest.upf.ipv4.ip packetDropNoRouteFound:vector(packetBytes):max -inf
scalar RnisTest.upf.ipv4.ip packetDropNoRouteFound:vector(packetBytes):starttime nan
scalar RnisTest.upf.ipv4.ip packetDropNoRouteFound:vector(packetBytes):endtime nan
scalar RnisTest.upf.ipv4.ip packetDropUndefined:vector(packetBytes):count 0
scalar RnisTest.upf.ipv4.ip packetDropUndefined:vector(packetBytes):sum 0
scalar RnisTest.upf.ipv4.ip packetDropUndefined:vector(packetBytes):sumweights 0
scalar RnisTest.upf.ipv4.ip packetDropUndefined:vector(packetBytes):mean -nan
scalar RnisTest.upf.ipv4.ip packetDropUndefined:vector(packetBytes):stddev nan
scalar RnisTest.upf.ipv4.ip packetDropUndefined:vector(packetBytes):min inf
scalar RnisTest.upf.ipv4.ip packetDropUndefined:vector(packetBytes):max -inf
scalar RnisTest.upf.ipv4.ip packetDropUndefined:vector(packetBytes):starttime nan
scalar RnisTest.upf.ipv4.ip packetDropUndefined:vector(packetBytes):endtime nan
scalar RnisTest.upf.ipv4.arp arpRequestSent:vector(packetBytes):count 0
scalar RnisTest.upf.ipv4.arp arpRequestSent:vector(packetBytes):sum 0
scalar RnisTest.upf.ipv4.arp arpRequestSent:vector(packetBytes):sumweights 0
scalar RnisTest.upf.ipv4.arp arpRequestSent:vector(packetBytes):mean -nan
scalar RnisTest.upf.ipv4.arp arpRequestSent:vector(packetBytes):stddev nan
scalar RnisTest.upf.ipv4.arp arpRequestSent:vector(packetBytes):min inf
scalar RnisTest.upf.ipv4.arp arpRequestSent:vector(packetBytes):max -inf
scalar RnisTest.upf.ipv4.arp arpRequestSent:vector(packetBytes):starttime nan
scalar RnisTest.upf.ipv4.arp arpRequestSent:vector(packetBytes):endtime nan
scalar RnisTest.upf.ipv4.arp arpReplySent:vector(packetBytes):count 0
scalar RnisTest.upf.ipv4.arp arpReplySent:vector(packetBytes):sum 0
scalar RnisTest.upf.ipv4.arp arpReplySent:vector(packetBytes):sumweights 0
scalar RnisTest.upf.ipv4.arp arpReplySent:vector(packetBytes):mean -nan
scalar RnisTest.upf.ipv4.arp arpReplySent:vector(packetBytes):stddev nan
scalar RnisTest.upf.ipv4.arp arpReplySent:vector(packetBytes):min inf
scalar RnisTest.upf.ipv4.arp arpReplySent:vector(packetBytes):max -inf
scalar RnisTest.upf.ipv4.arp arpReplySent:vector(packetBytes):starttime nan
scalar RnisTest.upf.ipv4.arp arpReplySent:vector(packetBytes):endtime nan
scalar RnisTest.upf.udp packetSent:vector(packetBytes):count 0
scalar RnisTest.upf.udp packetSent:vector(packetBytes):sum 0
scalar RnisTest.upf.udp packetSent:vector(packetBytes):sumweights 0
scalar RnisTest.upf.udp packetSent:vector(packetBytes):mean -nan
scalar RnisTest.upf.udp packetSent:vector(packetBytes):stddev nan
scalar RnisTest.upf.udp packetSent:vector(packetBytes):min inf
scalar RnisTest.upf.udp packetSent:vector(packetBytes):max -inf
scalar RnisTest.upf.udp packetSent:vector(packetBytes):starttime nan
scalar RnisTest.upf.udp packetSent:vector(packetBytes):endtime nan
scalar RnisTest.upf.udp packetReceived:vector(packetBytes):count 0
scalar RnisTest.upf.udp packetReceived:vector(packetBytes):sum 0
scalar RnisTest.upf.udp packetReceived:vector(packetBytes):sumweights 0
scalar RnisTest.upf.udp packetReceived:vector(packetBytes):mean -nan
scalar RnisTest.upf.udp packetReceived:vector(packetBytes):stddev nan
scalar RnisTest.upf.udp packetReceived:vector(packetBytes):min inf
scalar RnisTest.upf.udp packetReceived:vector(packetBytes):max -inf
scalar RnisTest.upf.udp packetReceived:vector(packetBytes):starttime nan
scalar RnisTest.upf.udp packetReceived:vector(packetBytes):endtime nan
scalar RnisTest.upf.udp passedUpPk:vector(count):count 0
scalar RnisTest.upf.udp passedUpPk:vector(count):sum 0
scalar RnisTest.upf.udp passedUpPk:vector(count):sumweights 0
scalar RnisTest.upf.udp passedUpPk:vector(count):mean -nan
scalar RnisTest.upf.udp passedUpPk:vector(count):stddev nan
scalar RnisTest.upf.udp passedUpPk:vector(count):min inf
scalar RnisTest.upf.udp passedUpPk:vector(count):max -inf
scalar RnisTest.upf.udp passedUpPk:vector(count):starttime nan
scalar RnisTest.upf.udp passedUpPk:vector(count):endtime nan
scalar RnisTest.upf.udp droppedPkWrongPort:vector(count):count 0
scalar RnisTest.upf.udp droppedPkWrongPort:vector(count):sum 0
scalar RnisTest.upf.udp droppedPkWrongPort:vector(count):sumweights 0
scalar RnisTest.upf.udp droppedPkWrongPort:vector(count):mean -nan
scalar RnisTest.upf.udp droppedPkWrongPort:vector(count):stddev nan
scalar RnisTest.upf.udp droppedPkWrongPort:vector(count):min inf
scalar RnisTest.upf.udp droppedPkWrongPort:vector(count):max -inf
scalar RnisTest.upf.udp droppedPkWrongPort:vector(count):starttime nan
scalar RnisTest.upf.udp droppedPkWrongPort:vector(count):endtime nan
scalar RnisTest.upf.udp droppedPkBadChecksum:vector(count):count 0
scalar RnisTest.upf.udp droppedPkBadChecksum:vector(count):sum 0
scalar RnisTest.upf.udp droppedPkBadChecksum:vector(count):sumweights 0
scalar RnisTest.upf.udp droppedPkBadChecksum:vector(count):mean -nan
scalar RnisTest.upf.udp droppedPkBadChecksum:vector(count):stddev nan
scalar RnisTest.upf.udp droppedPkBadChecksum:vector(count):min inf
scalar RnisTest.upf.udp droppedPkBadChecksum:vector(count):max -inf
scalar RnisTest.upf.udp droppedPkBadChecksum:vector(count):starttime nan
scalar RnisTest.upf.udp droppedPkBadChecksum:vector(count):endtime nan
scalar RnisTest.upf.dnPpp.queue queueLength:vector:count 0
scalar RnisTest.upf.dnPpp.queue queueLength:vector:sum 0
scalar RnisTest.upf.dnPpp.queue queueLength:vector:sumweights 0
scalar RnisTest.upf.dnPpp.queue queueLength:vector:mean -nan
scalar RnisTest.upf.dnPpp.queue queueLength:vector:stddev nan
scalar RnisTest.upf.dnPpp.queue queueLength:vector:min inf
scalar RnisTest.upf.dnPpp.queue queueLength:vector:max -inf
scalar RnisTest.upf.dnPpp.queue queueLength:vector:starttime nan
scalar RnisTest.upf.dnPpp.queue queueLength:vector:endtime nan
scalar RnisTest.upf.dnPpp.queue queueBitLength:vector:count 0
scalar RnisTest.upf.dnPpp.queue queueBitLength:vector:sum 0
scalar RnisTest.upf.dnPpp.queue queueBitLength:vector:sumweights 0
scalar RnisTest.upf.dnPpp.queue queueBitLength:vector:mean -nan
scalar RnisTest.upf.dnPpp.queue queueBitLength:vector:stddev nan
scalar RnisTest.upf.dnPpp.queue queueBitLength:vector:min inf
scalar RnisTest.upf.dnPpp.queue queueBitLength:vector:max -inf
scalar RnisTest.upf.dnPpp.queue queueBitLength:vector:starttime nan
scalar RnisTest.upf.dnPpp.queue queueBitLength:vector:endtime nan
scalar RnisTest.upf.dnPpp.queue queueingTime:vector:count 0
scalar RnisTest.upf.dnPpp.queue queueingTime:vector:sum 0
scalar RnisTest.upf.dnPpp.queue queueingTime:vector:sumweights 0
scalar RnisTest.upf.dnPpp.queue queueingTime:vector:mean -nan
scalar RnisTest.upf.dnPpp.queue queueingTime:vector:stddev nan
scalar RnisTest.upf.dnPpp.queue queueingTime:vector:min inf
scalar RnisTest.upf.dnPpp.queue queueingTime:vector:max -inf
scalar RnisTest.upf.dnPpp.queue queueingTime:vector:starttime nan
scalar RnisTest.upf.dnPpp.queue queueingTime:vector:endtime nan
scalar RnisTest.upf.dnPpp.queue incomingPacketLengths:vector:count 0
scalar RnisTest.upf.dnPpp.queue incomingPacketLengths:vector:sum 0
scalar RnisTest.upf.dnPpp.queue incomingPacketLengths:vector:sumweights 0
scalar RnisTest.upf.dnPpp.queue incomingPacketLengths:vector:mean -nan
scalar RnisTest.upf.dnPpp.queue incomingPacketLengths:vector:stddev nan
scalar RnisTest.upf.dnPpp.queue incomingPacketLengths:vector:min inf
scalar RnisTest.upf.dnPpp.queue incomingPacketLengths:vector:max -inf
scalar RnisTest.upf.dnPpp.queue incomingPacketLengths:vector:starttime nan
scalar RnisTest.upf.dnPpp.queue incomingPacketLengths:vector:endtime nan
scalar RnisTest.upf.dnPpp.queue incomingDataRate:vector:count 0
scalar RnisTest.upf.dnPpp.queue incomingDataRate:vector:sum 0
scalar RnisTest.upf.dnPpp.queue incomingDataRate:vector:sumweights 0
scalar RnisTest.upf.dnPpp.queue incomingDataRate:vector:mean -nan
scalar RnisTest.upf.dnPpp.queue incomingDataRate:vector:stddev nan
scalar RnisTest.upf.dnPpp.queue incomingDataRate:vector:min inf
scalar RnisTest.upf.dnPpp.queue incomingDataRate:vector:max -inf
scalar RnisTest.upf.dnPpp.queue incomingDataRate:vector:starttime nan
scalar RnisTest.upf.dnPpp.queue incomingDataRate:vector:endtime nan
scalar RnisTest.upf.dnPpp.queue outgoingPacketLengths:vector:count 0
scalar RnisTest.upf.dnPpp.queue outgoingPacketLengths:vector:sum 0
scalar RnisTest.upf.dnPpp.queue outgoingPacketLengths:vector:sumweights 0
scalar RnisTest.upf.dnPpp.queue outgoingPacketLengths:vector:mean -nan
scalar RnisTest.upf.dnPpp.queue outgoingPacketLengths:vector:stddev nan
scalar RnisTest.upf.dnPpp.queue outgoingPacketLengths:vector:min inf
scalar RnisTest.upf.dnPpp.queue outgoingPacketLengths:vector:max -inf
scalar RnisTest.upf.dnPpp.queue outgoingPacketLengths:vector:starttime nan
scalar RnisTest.upf.dnPpp.queue outgoingPacketLengths:vector:endtime nan
scalar RnisTest.upf.dnPpp.queue outgoingDataRate:vector:count 0
scalar RnisTest.upf.dnPpp.queue outgoingDataRate:vector:sum 0
scalar RnisTest.upf.dnPpp.queue outgoingDataRate:vector:sumweights 0
scalar RnisTest.upf.dnPpp.queue outgoingDataRate:vector:mean -nan
scalar RnisTest.upf.dnPpp.queue outgoingDataRate:vector:stddev nan
scalar RnisTest.upf.dnPpp.queue outgoingDataRate:vector:min inf
scalar RnisTest.upf.dnPpp.queue outgoingDataRate:vector:max -inf
scalar RnisTest.upf.dnPpp.queue outgoingDataRate:vector:starttime nan
scalar RnisTest.upf.dnPpp.queue outgoingDataRate:vector:endtime nan
scalar RnisTest.upf.dnPpp.queue droppedPacketLengthsQueueOverflow:vector:count 0
scalar RnisTest.upf.dnPpp.queue droppedPacketLengthsQueueOverflow:vector:sum 0
scalar RnisTest.upf.dnPpp.queue droppedPacketLengthsQueueOverflow:vector:sumweights 0
scalar RnisTest.upf.dnPpp.queue droppedPacketLengthsQueueOverflow:vector:mean -nan
scalar RnisTest.upf.dnPpp.queue droppedPacketLengthsQueueOverflow:vector:stddev nan
scalar RnisTest.upf.dnPpp.queue droppedPacketLengthsQueueOverflow:vector:min inf
scalar RnisTest.upf.dnPpp.queue droppedPacketLengthsQueueOverflow:vector:max -inf
scalar RnisTest.upf.dnPpp.queue droppedPacketLengthsQueueOverflow:vector:starttime nan
scalar RnisTest.upf.dnPpp.queue droppedPacketLengthsQueueOverflow:vector:endtime nan
scalar RnisTest.upf.dnPpp.queue flowQueueingTime:vector:count 0
scalar RnisTest.upf.dnPpp.queue flowQueueingTime:vector:sum 0
scalar RnisTest.upf.dnPpp.queue flowQueueingTime:vector:sumweights 0
scalar RnisTest.upf.dnPpp.queue flowQueueingTime:vector:mean -nan
scalar RnisTest.upf.dnPpp.queue flowQueueingTime:vector:stddev nan
scalar RnisTest.upf.dnPpp.queue flowQueueingTime:vector:min inf
scalar RnisTest.upf.dnPpp.queue flowQueueingTime:vector:max -inf
scalar RnisTest.upf.dnPpp.queue flowQueueingTime:vector:starttime nan
scalar RnisTest.upf.dnPpp.queue flowQueueingTime:vector:endtime nan
scalar RnisTest.upf.dnPpp.queue flowIncomingDataRate:vector:count 0
scalar RnisTest.upf.dnPpp.queue flowIncomingDataRate:vector:sum 0
scalar RnisTest.upf.dnPpp.queue flowIncomingDataRate:vector:sumweights 0
scalar RnisTest.upf.dnPpp.queue flowIncomingDataRate:vector:mean -nan
scalar RnisTest.upf.dnPpp.queue flowIncomingDataRate:vector:stddev nan
scalar RnisTest.upf.dnPpp.queue flowIncomingDataRate:vector:min inf
scalar RnisTest.upf.dnPpp.queue flowIncomingDataRate:vector:max -inf
scalar RnisTest.upf.dnPpp.queue flowIncomingDataRate:vector:starttime nan
scalar RnisTest.upf.dnPpp.queue flowIncomingDataRate:vector:endtime nan
scalar RnisTest.upf.dnPpp.queue flowOutgoingDataRate:vector:count 0
scalar RnisTest.upf.dnPpp.queue flowOutgoingDataRate:vector:sum 0
scalar RnisTest.upf.dnPpp.queue flowOutgoingDataRate:vector:sumweights 0
scalar RnisTest.upf.dnPpp.queue flowOutgoingDataRate:vector:mean -nan
scalar RnisTest.upf.dnPpp.queue flowOutgoingDataRate:vector:stddev nan
scalar RnisTest.upf.dnPpp.queue flowOutgoingDataRate:vector:min inf
scalar RnisTest.upf.dnPpp.queue flowOutgoingDataRate:vector:max -inf
scalar RnisTest.upf.dnPpp.queue flowOutgoingDataRate:vector:starttime nan
scalar RnisTest.upf.dnPpp.queue flowOutgoingDataRate:vector:endtime nan
scalar RnisTest.upf.dnPpp.ppp transmissionState:vector:count 0
scalar RnisTest.upf.dnPpp.ppp transmissionState:vector:sum 0
scalar RnisTest.upf.dnPpp.ppp transmissionState:vector:sumweights 0
scalar RnisTest.upf.dnPpp.ppp transmissionState:vector:mean -nan
scalar RnisTest.upf.dnPpp.ppp transmissionState:vector:stddev nan
scalar RnisTest.upf.dnPpp.ppp transmissionState:vector:min inf
scalar RnisTest.upf.dnPpp.ppp transmissionState:vector:max -inf
scalar RnisTest.upf.dnPpp.ppp transmissionState:vector:starttime nan
scalar RnisTest.upf.dnPpp.ppp transmissionState:vector:endtime nan
scalar RnisTest.upf.dnPpp.ppp txPk:vector(packetBytes):count 0
scalar RnisTest.upf.dnPpp.ppp txPk:vector(packetBytes):sum 0
scalar RnisTest.upf.dnPpp.ppp txPk:vector(packetBytes):sumweights 0
scalar RnisTest.upf.dnPpp.ppp txPk:vector(packetBytes):mean -nan
scalar RnisTest.upf.dnPpp.ppp txPk:vector(packetBytes):stddev nan
scalar RnisTest.upf.dnPpp.ppp txPk:vector(packetBytes):min inf
scalar RnisTest.upf.dnPpp.ppp txPk:vector(packetBytes):max -inf
scalar RnisTest.upf.dnPpp.ppp txPk:vector(packetBytes):starttime nan
scalar RnisTest.upf.dnPpp.ppp txPk:vector(packetBytes):endtime nan
scalar RnisTest.upf.dnPpp.ppp rxPkOk:vector(packetBytes):count 0
scalar RnisTest.upf.dnPpp.ppp rxPkOk:vector(packetBytes):sum 0
scalar RnisTest.upf.dnPpp.ppp rxPkOk:vector(packetBytes):sumweights 0
scalar RnisTest.upf.dnPpp.ppp rxPkOk:vector(packetBytes):mean -nan
scalar RnisTest.upf.dnPpp.ppp rxPkOk:vector(packetBytes):stddev nan
scalar RnisTest.upf.dnPpp.ppp rxPkOk:vector(packetBytes):min inf
scalar RnisTest.upf.dnPpp.ppp rxPkOk:vector(packetBytes):max -inf
scalar RnisTest.upf.dnPpp.ppp rxPkOk:vector(packetBytes):starttime nan
scalar RnisTest.upf.dnPpp.ppp rxPkOk:vector(packetBytes):endtime nan
scalar RnisTest.upf.dnPpp.ppp packetDropIncorrectlyReceived:vector(packetBytes):count 0
scalar RnisTest.upf.dnPpp.ppp packetDropIncorrectlyReceived:vector(packetBytes):sum 0
scalar RnisTest.upf.dnPpp.ppp packetDropIncorrectlyReceived:vector(packetBytes):sumweights 0
scalar RnisTest.upf.dnPpp.ppp packetDropIncorrectlyReceived:vector(packetBytes):mean -nan
scalar RnisTest.upf.dnPpp.ppp packetDropIncorrectlyReceived:vector(packetBytes):stddev nan
scalar RnisTest.upf.dnPpp.ppp packetDropIncorrectlyReceived:vector(packetBytes):min inf
scalar RnisTest.upf.dnPpp.ppp packetDropIncorrectlyReceived:vector(packetBytes):max -inf
scalar RnisTest.upf.dnPpp.ppp packetDropIncorrectlyReceived:vector(packetBytes):starttime nan
scalar RnisTest.upf.dnPpp.ppp packetDropIncorrectlyReceived:vector(packetBytes):endtime nan
scalar RnisTest.upf.dnPpp.ppp packetDropInterfaceDown:vector(packetBytes):count 0
scalar RnisTest.upf.dnPpp.ppp packetDropInterfaceDown:vector(packetBytes):sum 0
scalar RnisTest.upf.dnPpp.ppp packetDropInterfaceDown:vector(packetBytes):sumweights 0
scalar RnisTest.upf.dnPpp.ppp packetDropInterfaceDown:vector(packetBytes):mean -nan
scalar RnisTest.upf.dnPpp.ppp packetDropInterfaceDown:vector(packetBytes):stddev nan
scalar RnisTest.upf.dnPpp.ppp packetDropInterfaceDown:vector(packetBytes):min inf
scalar RnisTest.upf.dnPpp.ppp packetDropInterfaceDown:vector(packetBytes):max -inf
scalar RnisTest.upf.dnPpp.ppp packetDropInterfaceDown:vector(packetBytes):starttime nan
scalar RnisTest.upf.dnPpp.ppp packetDropInterfaceDown:vector(packetBytes):endtime nan
scalar RnisTest.upf.dnPpp.ppp rcvdPkFromHl:vector(packetBytes):count 0
scalar RnisTest.upf.dnPpp.ppp rcvdPkFromHl:vector(packetBytes):sum 0
scalar RnisTest.upf.dnPpp.ppp rcvdPkFromHl:vector(packetBytes):sumweights 0
scalar RnisTest.upf.dnPpp.ppp rcvdPkFromHl:vector(packetBytes):mean -nan
scalar RnisTest.upf.dnPpp.ppp rcvdPkFromHl:vector(packetBytes):stddev nan
scalar RnisTest.upf.dnPpp.ppp rcvdPkFromHl:vector(packetBytes):min inf
scalar RnisTest.upf.dnPpp.ppp rcvdPkFromHl:vector(packetBytes):max -inf
scalar RnisTest.upf.dnPpp.ppp rcvdPkFromHl:vector(packetBytes):starttime nan
scalar RnisTest.upf.dnPpp.ppp rcvdPkFromHl:vector(packetBytes):endtime nan
scalar RnisTest.upf.dnPpp.ppp passedUpPk:vector(packetBytes):count 0
scalar RnisTest.upf.dnPpp.ppp passedUpPk:vector(packetBytes):sum 0
scalar RnisTest.upf.dnPpp.ppp passedUpPk:vector(packetBytes):sumweights 0
scalar RnisTest.upf.dnPpp.ppp passedUpPk:vector(packetBytes):mean -nan
scalar RnisTest.upf.dnPpp.ppp passedUpPk:vector(packetBytes):stddev nan
scalar RnisTest.upf.dnPpp.ppp passedUpPk:vector(packetBytes):min inf
scalar RnisTest.upf.dnPpp.ppp passedUpPk:vector(packetBytes):max -inf
scalar RnisTest.upf.dnPpp.ppp passedUpPk:vector(packetBytes):starttime nan
scalar RnisTest.upf.dnPpp.ppp passedUpPk:vector(packetBytes):endtime nan
scalar RnisTest.upf.dnPpp packetDropInterfaceDown:vector(packetBytes):count 0
scalar RnisTest.upf.dnPpp packetDropInterfaceDown:vector(packetBytes):sum 0
scalar RnisTest.upf.dnPpp packetDropInterfaceDown:vector(packetBytes):sumweights 0
scalar RnisTest.upf.dnPpp packetDropInterfaceDown:vector(packetBytes):mean -nan
scalar RnisTest.upf.dnPpp packetDropInterfaceDown:vector(packetBytes):stddev nan
scalar RnisTest.upf.dnPpp packetDropInterfaceDown:vector(packetBytes):min inf
scalar RnisTest.upf.dnPpp packetDropInterfaceDown:vector(packetBytes):max -inf
scalar RnisTest.upf.dnPpp packetDropInterfaceDown:vector(packetBytes):starttime nan
scalar RnisTest.upf.dnPpp packetDropInterfaceDown:vector(packetBytes):endtime nan
scalar RnisTest.upf.dnPpp packetDropNoCarrier:vector(packetBytes):count 0
scalar RnisTest.upf.dnPpp packetDropNoCarrier:vector(packetBytes):sum 0
scalar RnisTest.upf.dnPpp packetDropNoCarrier:vector(packetBytes):sumweights 0
scalar RnisTest.upf.dnPpp packetDropNoCarrier:vector(packetBytes):mean -nan
scalar RnisTest.upf.dnPpp packetDropNoCarrier:vector(packetBytes):stddev nan
scalar RnisTest.upf.dnPpp packetDropNoCarrier:vector(packetBytes):min inf
scalar RnisTest.upf.dnPpp packetDropNoCarrier:vector(packetBytes):max -inf
scalar RnisTest.upf.dnPpp packetDropNoCarrier:vector(packetBytes):starttime nan
scalar RnisTest.upf.dnPpp packetDropNoCarrier:vector(packetBytes):endtime nan
scalar RnisTest.iUpf.lo[0].lo rcvdPkFromHl:vector(packetBytes):count 0
scalar RnisTest.iUpf.lo[0].lo rcvdPkFromHl:vector(packetBytes):sum 0
scalar RnisTest.iUpf.lo[0].lo rcvdPkFromHl:vector(packetBytes):sumweights 0
scalar RnisTest.iUpf.lo[0].lo rcvdPkFromHl:vector(packetBytes):mean -nan
scalar RnisTest.iUpf.lo[0].lo rcvdPkFromHl:vector(packetBytes):stddev nan
scalar RnisTest.iUpf.lo[0].lo rcvdPkFromHl:vector(packetBytes):min inf
scalar RnisTest.iUpf.lo[0].lo rcvdPkFromHl:vector(packetBytes):max -inf
scalar RnisTest.iUpf.lo[0].lo rcvdPkFromHl:vector(packetBytes):starttime nan
scalar RnisTest.iUpf.lo[0].lo rcvdPkFromHl:vector(packetBytes):endtime nan
scalar RnisTest.iUpf.lo[0].lo passedUpPk:vector(packetBytes):count 0
scalar RnisTest.iUpf.lo[0].lo passedUpPk:vector(packetBytes):sum 0
scalar RnisTest.iUpf.lo[0].lo passedUpPk:vector(packetBytes):sumweights 0
scalar RnisTest.iUpf.lo[0].lo passedUpPk:vector(packetBytes):mean -nan
scalar RnisTest.iUpf.lo[0].lo passedUpPk:vector(packetBytes):stddev nan
scalar RnisTest.iUpf.lo[0].lo passedUpPk:vector(packetBytes):min inf
scalar RnisTest.iUpf.lo[0].lo passedUpPk:vector(packetBytes):max -inf
scalar RnisTest.iUpf.lo[0].lo passedUpPk:vector(packetBytes):starttime nan
scalar RnisTest.iUpf.lo[0].lo passedUpPk:vector(packetBytes):endtime nan
scalar RnisTest.iUpf.lo[0] packetDropInterfaceDown:vector(packetBytes):count 0
scalar RnisTest.iUpf.lo[0] packetDropInterfaceDown:vector(packetBytes):sum 0
scalar RnisTest.iUpf.lo[0] packetDropInterfaceDown:vector(packetBytes):sumweights 0
scalar RnisTest.iUpf.lo[0] packetDropInterfaceDown:vector(packetBytes):mean -nan
scalar RnisTest.iUpf.lo[0] packetDropInterfaceDown:vector(packetBytes):stddev nan
scalar RnisTest.iUpf.lo[0] packetDropInterfaceDown:vector(packetBytes):min inf
scalar RnisTest.iUpf.lo[0] packetDropInterfaceDown:vector(packetBytes):max -inf
scalar RnisTest.iUpf.lo[0] packetDropInterfaceDown:vector(packetBytes):starttime nan
scalar RnisTest.iUpf.lo[0] packetDropInterfaceDown:vector(packetBytes):endtime nan
scalar RnisTest.iUpf.lo[0] packetDropNoCarrier:vector(packetBytes):count 0
scalar RnisTest.iUpf.lo[0] packetDropNoCarrier:vector(packetBytes):sum 0
scalar RnisTest.iUpf.lo[0] packetDropNoCarrier:vector(packetBytes):sumweights 0
scalar RnisTest.iUpf.lo[0] packetDropNoCarrier:vector(packetBytes):mean -nan
scalar RnisTest.iUpf.lo[0] packetDropNoCarrier:vector(packetBytes):stddev nan
scalar RnisTest.iUpf.lo[0] packetDropNoCarrier:vector(packetBytes):min inf
scalar RnisTest.iUpf.lo[0] packetDropNoCarrier:vector(packetBytes):max -inf
scalar RnisTest.iUpf.lo[0] packetDropNoCarrier:vector(packetBytes):starttime nan
scalar RnisTest.iUpf.lo[0] packetDropNoCarrier:vector(packetBytes):endtime nan
scalar RnisTest.iUpf.ppp[0].queue queueLength:vector:count 0
scalar RnisTest.iUpf.ppp[0].queue queueLength:vector:sum 0
scalar RnisTest.iUpf.ppp[0].queue queueLength:vector:sumweights 0
scalar RnisTest.iUpf.ppp[0].queue queueLength:vector:mean -nan
scalar RnisTest.iUpf.ppp[0].queue queueLength:vector:stddev nan
scalar RnisTest.iUpf.ppp[0].queue queueLength:vector:min inf
scalar RnisTest.iUpf.ppp[0].queue queueLength:vector:max -inf
scalar RnisTest.iUpf.ppp[0].queue queueLength:vector:starttime nan
scalar RnisTest.iUpf.ppp[0].queue queueLength:vector:endtime nan
scalar RnisTest.iUpf.ppp[0].queue queueBitLength:vector:count 0
scalar RnisTest.iUpf.ppp[0].queue queueBitLength:vector:sum 0
scalar RnisTest.iUpf.ppp[0].queue queueBitLength:vector:sumweights 0
scalar RnisTest.iUpf.ppp[0].queue queueBitLength:vector:mean -nan
scalar RnisTest.iUpf.ppp[0].queue queueBitLength:vector:stddev nan
scalar RnisTest.iUpf.ppp[0].queue queueBitLength:vector:min inf
scalar RnisTest.iUpf.ppp[0].queue queueBitLength:vector:max -inf
scalar RnisTest.iUpf.ppp[0].queue queueBitLength:vector:starttime nan
scalar RnisTest.iUpf.ppp[0].queue queueBitLength:vector:endtime nan
scalar RnisTest.iUpf.ppp[0].queue queueingTime:vector:count 0
scalar RnisTest.iUpf.ppp[0].queue queueingTime:vector:sum 0
scalar RnisTest.iUpf.ppp[0].queue queueingTime:vector:sumweights 0
scalar RnisTest.iUpf.ppp[0].queue queueingTime:vector:mean -nan
scalar RnisTest.iUpf.ppp[0].queue queueingTime:vector:stddev nan
scalar RnisTest.iUpf.ppp[0].queue queueingTime:vector:min inf
scalar RnisTest.iUpf.ppp[0].queue queueingTime:vector:max -inf
scalar RnisTest.iUpf.ppp[0].queue queueingTime:vector:starttime nan
scalar RnisTest.iUpf.ppp[0].queue queueingTime:vector:endtime nan
scalar RnisTest.iUpf.ppp[0].queue incomingPacketLengths:vector:count 0
scalar RnisTest.iUpf.ppp[0].queue incomingPacketLengths:vector:sum 0
scalar RnisTest.iUpf.ppp[0].queue incomingPacketLengths:vector:sumweights 0
scalar RnisTest.iUpf.ppp[0].queue incomingPacketLengths:vector:mean -nan
scalar RnisTest.iUpf.ppp[0].queue incomingPacketLengths:vector:stddev nan
scalar RnisTest.iUpf.ppp[0].queue incomingPacketLengths:vector:min inf
scalar RnisTest.iUpf.ppp[0].queue incomingPacketLengths:vector:max -inf
scalar RnisTest.iUpf.ppp[0].queue incomingPacketLengths:vector:starttime nan
scalar RnisTest.iUpf.ppp[0].queue incomingPacketLengths:vector:endtime nan
scalar RnisTest.iUpf.ppp[0].queue incomingDataRate:vector:count 0
scalar RnisTest.iUpf.ppp[0].queue incomingDataRate:vector:sum 0
scalar RnisTest.iUpf.ppp[0].queue incomingDataRate:vector:sumweights 0
scalar RnisTest.iUpf.ppp[0].queue incomingDataRate:vector:mean -nan
scalar RnisTest.iUpf.ppp[0].queue incomingDataRate:vector:stddev nan
scalar RnisTest.iUpf.ppp[0].queue incomingDataRate:vector:min inf
scalar RnisTest.iUpf.ppp[0].queue incomingDataRate:vector:max -inf
scalar RnisTest.iUpf.ppp[0].queue incomingDataRate:vector:starttime nan
scalar RnisTest.iUpf.ppp[0].queue incomingDataRate:vector:endtime nan
scalar RnisTest.iUpf.ppp[0].queue outgoingPacketLengths:vector:count 0
scalar RnisTest.iUpf.ppp[0].queue outgoingPacketLengths:vector:sum 0
scalar RnisTest.iUpf.ppp[0].queue outgoingPacketLengths:vector:sumweights 0
scalar RnisTest.iUpf.ppp[0].queue outgoingPacketLengths:vector:mean -nan
scalar RnisTest.iUpf.ppp[0].queue outgoingPacketLengths:vector:stddev nan
scalar RnisTest.iUpf.ppp[0].queue outgoingPacketLengths:vector:min inf
scalar RnisTest.iUpf.ppp[0].queue outgoingPacketLengths:vector:max -inf
scalar RnisTest.iUpf.ppp[0].queue outgoingPacketLengths:vector:starttime nan
scalar RnisTest.iUpf.ppp[0].queue outgoingPacketLengths:vector:endtime nan
scalar RnisTest.iUpf.ppp[0].queue outgoingDataRate:vector:count 0
scalar RnisTest.iUpf.ppp[0].queue outgoingDataRate:vector:sum 0
scalar RnisTest.iUpf.ppp[0].queue outgoingDataRate:vector:sumweights 0
scalar RnisTest.iUpf.ppp[0].queue outgoingDataRate:vector:mean -nan
scalar RnisTest.iUpf.ppp[0].queue outgoingDataRate:vector:stddev nan
scalar RnisTest.iUpf.ppp[0].queue outgoingDataRate:vector:min inf
scalar RnisTest.iUpf.ppp[0].queue outgoingDataRate:vector:max -inf
scalar RnisTest.iUpf.ppp[0].queue outgoingDataRate:vector:starttime nan
scalar RnisTest.iUpf.ppp[0].queue outgoingDataRate:vector:endtime nan
scalar RnisTest.iUpf.ppp[0].queue droppedPacketLengthsQueueOverflow:vector:count 0
scalar RnisTest.iUpf.ppp[0].queue droppedPacketLengthsQueueOverflow:vector:sum 0
scalar RnisTest.iUpf.ppp[0].queue droppedPacketLengthsQueueOverflow:vector:sumweights 0
scalar RnisTest.iUpf.ppp[0].queue droppedPacketLengthsQueueOverflow:vector:mean -nan
scalar RnisTest.iUpf.ppp[0].queue droppedPacketLengthsQueueOverflow:vector:stddev nan
scalar RnisTest.iUpf.ppp[0].queue droppedPacketLengthsQueueOverflow:vector:min inf
scalar RnisTest.iUpf.ppp[0].queue droppedPacketLengthsQueueOverflow:vector:max -inf
scalar RnisTest.iUpf.ppp[0].queue droppedPacketLengthsQueueOverflow:vector:starttime nan
scalar RnisTest.iUpf.ppp[0].queue droppedPacketLengthsQueueOverflow:vector:endtime nan
scalar RnisTest.iUpf.ppp[0].queue flowQueueingTime:vector:count 0
scalar RnisTest.iUpf.ppp[0].queue flowQueueingTime:vector:sum 0
scalar RnisTest.iUpf.ppp[0].queue flowQueueingTime:vector:sumweights 0
scalar RnisTest.iUpf.ppp[0].queue flowQueueingTime:vector:mean -nan
scalar RnisTest.iUpf.ppp[0].queue flowQueueingTime:vector:stddev nan
scalar RnisTest.iUpf.ppp[0].queue flowQueueingTime:vector:min inf
scalar RnisTest.iUpf.ppp[0].queue flowQueueingTime:vector:max -inf
scalar RnisTest.iUpf.ppp[0].queue flowQueueingTime:vector:starttime nan
scalar RnisTest.iUpf.ppp[0].queue flowQueueingTime:vector:endtime nan
scalar RnisTest.iUpf.ppp[0].queue flowIncomingDataRate:vector:count 0
scalar RnisTest.iUpf.ppp[0].queue flowIncomingDataRate:vector:sum 0
scalar RnisTest.iUpf.ppp[0].queue flowIncomingDataRate:vector:sumweights 0
scalar RnisTest.iUpf.ppp[0].queue flowIncomingDataRate:vector:mean -nan
scalar RnisTest.iUpf.ppp[0].queue flowIncomingDataRate:vector:stddev nan
scalar RnisTest.iUpf.ppp[0].queue flowIncomingDataRate:vector:min inf
scalar RnisTest.iUpf.ppp[0].queue flowIncomingDataRate:vector:max -inf
scalar RnisTest.iUpf.ppp[0].queue flowIncomingDataRate:vector:starttime nan
scalar RnisTest.iUpf.ppp[0].queue flowIncomingDataRate:vector:endtime nan
scalar RnisTest.iUpf.ppp[0].queue flowOutgoingDataRate:vector:count 0
scalar RnisTest.iUpf.ppp[0].queue flowOutgoingDataRate:vector:sum 0
scalar RnisTest.iUpf.ppp[0].queue flowOutgoingDataRate:vector:sumweights 0
scalar RnisTest.iUpf.ppp[0].queue flowOutgoingDataRate:vector:mean -nan
scalar RnisTest.iUpf.ppp[0].queue flowOutgoingDataRate:vector:stddev nan
scalar RnisTest.iUpf.ppp[0].queue flowOutgoingDataRate:vector:min inf
scalar RnisTest.iUpf.ppp[0].queue flowOutgoingDataRate:vector:max -inf
scalar RnisTest.iUpf.ppp[0].queue flowOutgoingDataRate:vector:starttime nan
scalar RnisTest.iUpf.ppp[0].queue flowOutgoingDataRate:vector:endtime nan
scalar RnisTest.iUpf.ppp[0].ppp transmissionState:vector:count 0
scalar RnisTest.iUpf.ppp[0].ppp transmissionState:vector:sum 0
scalar RnisTest.iUpf.ppp[0].ppp transmissionState:vector:sumweights 0
scalar RnisTest.iUpf.ppp[0].ppp transmissionState:vector:mean -nan
scalar RnisTest.iUpf.ppp[0].ppp transmissionState:vector:stddev nan
scalar RnisTest.iUpf.ppp[0].ppp transmissionState:vector:min inf
scalar RnisTest.iUpf.ppp[0].ppp transmissionState:vector:max -inf
scalar RnisTest.iUpf.ppp[0].ppp transmissionState:vector:starttime nan
scalar RnisTest.iUpf.ppp[0].ppp transmissionState:vector:endtime nan
scalar RnisTest.iUpf.ppp[0].ppp txPk:vector(packetBytes):count 0
scalar RnisTest.iUpf.ppp[0].ppp txPk:vector(packetBytes):sum 0
scalar RnisTest.iUpf.ppp[0].ppp txPk:vector(packetBytes):sumweights 0
scalar RnisTest.iUpf.ppp[0].ppp txPk:vector(packetBytes):mean -nan
scalar RnisTest.iUpf.ppp[0].ppp txPk:vector(packetBytes):stddev nan
scalar RnisTest.iUpf.ppp[0].ppp txPk:vector(packetBytes):min inf
scalar RnisTest.iUpf.ppp[0].ppp txPk:vector(packetBytes):max -inf
scalar RnisTest.iUpf.ppp[0].ppp txPk:vector(packetBytes):starttime nan
scalar RnisTest.iUpf.ppp[0].ppp txPk:vector(packetBytes):endtime nan
scalar RnisTest.iUpf.ppp[0].ppp rxPkOk:vector(packetBytes):count 0
scalar RnisTest.iUpf.ppp[0].ppp rxPkOk:vector(packetBytes):sum 0
scalar RnisTest.iUpf.ppp[0].ppp rxPkOk:vector(packetBytes):sumweights 0
scalar RnisTest.iUpf.ppp[0].ppp rxPkOk:vector(packetBytes):mean -nan
scalar RnisTest.iUpf.ppp[0].ppp rxPkOk:vector(packetBytes):stddev nan
scalar RnisTest.iUpf.ppp[0].ppp rxPkOk:vector(packetBytes):min inf
scalar RnisTest.iUpf.ppp[0].ppp rxPkOk:vector(packetBytes):max -inf
scalar RnisTest.iUpf.ppp[0].ppp rxPkOk:vector(packetBytes):starttime nan
scalar RnisTest.iUpf.ppp[0].ppp rxPkOk:vector(packetBytes):endtime nan
scalar RnisTest.iUpf.ppp[0].ppp packetDropIncorrectlyReceived:vector(packetBytes):count 0
scalar RnisTest.iUpf.ppp[0].ppp packetDropIncorrectlyReceived:vector(packetBytes):sum 0
scalar RnisTest.iUpf.ppp[0].ppp packetDropIncorrectlyReceived:vector(packetBytes):sumweights 0
scalar RnisTest.iUpf.ppp[0].ppp packetDropIncorrectlyReceived:vector(packetBytes):mean -nan
scalar RnisTest.iUpf.ppp[0].ppp packetDropIncorrectlyReceived:vector(packetBytes):stddev nan
scalar RnisTest.iUpf.ppp[0].ppp packetDropIncorrectlyReceived:vector(packetBytes):min inf
scalar RnisTest.iUpf.ppp[0].ppp packetDropIncorrectlyReceived:vector(packetBytes):max -inf
scalar RnisTest.iUpf.ppp[0].ppp packetDropIncorrectlyReceived:vector(packetBytes):starttime nan
scalar RnisTest.iUpf.ppp[0].ppp packetDropIncorrectlyReceived:vector(packetBytes):endtime nan
scalar RnisTest.iUpf.ppp[0].ppp packetDropInterfaceDown:vector(packetBytes):count 0
scalar RnisTest.iUpf.ppp[0].ppp packetDropInterfaceDown:vector(packetBytes):sum 0
scalar RnisTest.iUpf.ppp[0].ppp packetDropInterfaceDown:vector(packetBytes):sumweights 0
scalar RnisTest.iUpf.ppp[0].ppp packetDropInterfaceDown:vector(packetBytes):mean -nan
scalar RnisTest.iUpf.ppp[0].ppp packetDropInterfaceDown:vector(packetBytes):stddev nan
scalar RnisTest.iUpf.ppp[0].ppp packetDropInterfaceDown:vector(packetBytes):min inf
scalar RnisTest.iUpf.ppp[0].ppp packetDropInterfaceDown:vector(packetBytes):max -inf
scalar RnisTest.iUpf.ppp[0].ppp packetDropInterfaceDown:vector(packetBytes):starttime nan
scalar RnisTest.iUpf.ppp[0].ppp packetDropInterfaceDown:vector(packetBytes):endtime nan
scalar RnisTest.iUpf.ppp[0].ppp rcvdPkFromHl:vector(packetBytes):count 0
scalar RnisTest.iUpf.ppp[0].ppp rcvdPkFromHl:vector(packetBytes):sum 0
scalar RnisTest.iUpf.ppp[0].ppp rcvdPkFromHl:vector(packetBytes):sumweights 0
scalar RnisTest.iUpf.ppp[0].ppp rcvdPkFromHl:vector(packetBytes):mean -nan
scalar RnisTest.iUpf.ppp[0].ppp rcvdPkFromHl:vector(packetBytes):stddev nan
scalar RnisTest.iUpf.ppp[0].ppp rcvdPkFromHl:vector(packetBytes):min inf
scalar RnisTest.iUpf.ppp[0].ppp rcvdPkFromHl:vector(packetBytes):max -inf
scalar RnisTest.iUpf.ppp[0].ppp rcvdPkFromHl:vector(packetBytes):starttime nan
scalar RnisTest.iUpf.ppp[0].ppp rcvdPkFromHl:vector(packetBytes):endtime nan
scalar RnisTest.iUpf.ppp[0].ppp passedUpPk:vector(packetBytes):count 0
scalar RnisTest.iUpf.ppp[0].ppp passedUpPk:vector(packetBytes):sum 0
scalar RnisTest.iUpf.ppp[0].ppp passedUpPk:vector(packetBytes):sumweights 0
scalar RnisTest.iUpf.ppp[0].ppp passedUpPk:vector(packetBytes):mean -nan
scalar RnisTest.iUpf.ppp[0].ppp passedUpPk:vector(packetBytes):stddev nan
scalar RnisTest.iUpf.ppp[0].ppp passedUpPk:vector(packetBytes):min inf
scalar RnisTest.iUpf.ppp[0].ppp passedUpPk:vector(packetBytes):max -inf
scalar RnisTest.iUpf.ppp[0].ppp passedUpPk:vector(packetBytes):starttime nan
scalar RnisTest.iUpf.ppp[0].ppp passedUpPk:vector(packetBytes):endtime nan
scalar RnisTest.iUpf.ppp[0] packetDropInterfaceDown:vector(packetBytes):count 0
scalar RnisTest.iUpf.ppp[0] packetDropInterfaceDown:vector(packetBytes):sum 0
scalar RnisTest.iUpf.ppp[0] packetDropInterfaceDown:vector(packetBytes):sumweights 0
scalar RnisTest.iUpf.ppp[0] packetDropInterfaceDown:vector(packetBytes):mean -nan
scalar RnisTest.iUpf.ppp[0] packetDropInterfaceDown:vector(packetBytes):stddev nan
scalar RnisTest.iUpf.ppp[0] packetDropInterfaceDown:vector(packetBytes):min inf
scalar RnisTest.iUpf.ppp[0] packetDropInterfaceDown:vector(packetBytes):max -inf
scalar RnisTest.iUpf.ppp[0] packetDropInterfaceDown:vector(packetBytes):starttime nan
scalar RnisTest.iUpf.ppp[0] packetDropInterfaceDown:vector(packetBytes):endtime nan
scalar RnisTest.iUpf.ppp[0] packetDropNoCarrier:vector(packetBytes):count 0
scalar RnisTest.iUpf.ppp[0] packetDropNoCarrier:vector(packetBytes):sum 0
scalar RnisTest.iUpf.ppp[0] packetDropNoCarrier:vector(packetBytes):sumweights 0
scalar RnisTest.iUpf.ppp[0] packetDropNoCarrier:vector(packetBytes):mean -nan
scalar RnisTest.iUpf.ppp[0] packetDropNoCarrier:vector(packetBytes):stddev nan
scalar RnisTest.iUpf.ppp[0] packetDropNoCarrier:vector(packetBytes):min inf
scalar RnisTest.iUpf.ppp[0] packetDropNoCarrier:vector(packetBytes):max -inf
scalar RnisTest.iUpf.ppp[0] packetDropNoCarrier:vector(packetBytes):starttime nan
scalar RnisTest.iUpf.ppp[0] packetDropNoCarrier:vector(packetBytes):endtime nan
scalar RnisTest.iUpf.ppp[1].queue queueLength:vector:count 0
scalar RnisTest.iUpf.ppp[1].queue queueLength:vector:sum 0
scalar RnisTest.iUpf.ppp[1].queue queueLength:vector:sumweights 0
scalar RnisTest.iUpf.ppp[1].queue queueLength:vector:mean -nan
scalar RnisTest.iUpf.ppp[1].queue queueLength:vector:stddev nan
scalar RnisTest.iUpf.ppp[1].queue queueLength:vector:min inf
scalar RnisTest.iUpf.ppp[1].queue queueLength:vector:max -inf
scalar RnisTest.iUpf.ppp[1].queue queueLength:vector:starttime nan
scalar RnisTest.iUpf.ppp[1].queue queueLength:vector:endtime nan
scalar RnisTest.iUpf.ppp[1].queue queueBitLength:vector:count 0
scalar RnisTest.iUpf.ppp[1].queue queueBitLength:vector:sum 0
scalar RnisTest.iUpf.ppp[1].queue queueBitLength:vector:sumweights 0
scalar RnisTest.iUpf.ppp[1].queue queueBitLength:vector:mean -nan
scalar RnisTest.iUpf.ppp[1].queue queueBitLength:vector:stddev nan
scalar RnisTest.iUpf.ppp[1].queue queueBitLength:vector:min inf
scalar RnisTest.iUpf.ppp[1].queue queueBitLength:vector:max -inf
scalar RnisTest.iUpf.ppp[1].queue queueBitLength:vector:starttime nan
scalar RnisTest.iUpf.ppp[1].queue queueBitLength:vector:endtime nan
scalar RnisTest.iUpf.ppp[1].queue queueingTime:vector:count 0
scalar RnisTest.iUpf.ppp[1].queue queueingTime:vector:sum 0
scalar RnisTest.iUpf.ppp[1].queue queueingTime:vector:sumweights 0
scalar RnisTest.iUpf.ppp[1].queue queueingTime:vector:mean -nan
scalar RnisTest.iUpf.ppp[1].queue queueingTime:vector:stddev nan
scalar RnisTest.iUpf.ppp[1].queue queueingTime:vector:min inf
scalar RnisTest.iUpf.ppp[1].queue queueingTime:vector:max -inf
scalar RnisTest.iUpf.ppp[1].queue queueingTime:vector:starttime nan
scalar RnisTest.iUpf.ppp[1].queue queueingTime:vector:endtime nan
scalar RnisTest.iUpf.ppp[1].queue incomingPacketLengths:vector:count 0
scalar RnisTest.iUpf.ppp[1].queue incomingPacketLengths:vector:sum 0
scalar RnisTest.iUpf.ppp[1].queue incomingPacketLengths:vector:sumweights 0
scalar RnisTest.iUpf.ppp[1].queue incomingPacketLengths:vector:mean -nan
scalar RnisTest.iUpf.ppp[1].queue incomingPacketLengths:vector:stddev nan
scalar RnisTest.iUpf.ppp[1].queue incomingPacketLengths:vector:min inf
scalar RnisTest.iUpf.ppp[1].queue incomingPacketLengths:vector:max -inf
scalar RnisTest.iUpf.ppp[1].queue incomingPacketLengths:vector:starttime nan
scalar RnisTest.iUpf.ppp[1].queue incomingPacketLengths:vector:endtime nan
scalar RnisTest.iUpf.ppp[1].queue incomingDataRate:vector:count 0
scalar RnisTest.iUpf.ppp[1].queue incomingDataRate:vector:sum 0
scalar RnisTest.iUpf.ppp[1].queue incomingDataRate:vector:sumweights 0
scalar RnisTest.iUpf.ppp[1].queue incomingDataRate:vector:mean -nan
scalar RnisTest.iUpf.ppp[1].queue incomingDataRate:vector:stddev nan
scalar RnisTest.iUpf.ppp[1].queue incomingDataRate:vector:min inf
scalar RnisTest.iUpf.ppp[1].queue incomingDataRate:vector:max -inf
scalar RnisTest.iUpf.ppp[1].queue incomingDataRate:vector:starttime nan
scalar RnisTest.iUpf.ppp[1].queue incomingDataRate:vector:endtime nan
scalar RnisTest.iUpf.ppp[1].queue outgoingPacketLengths:vector:count 0
scalar RnisTest.iUpf.ppp[1].queue outgoingPacketLengths:vector:sum 0
scalar RnisTest.iUpf.ppp[1].queue outgoingPacketLengths:vector:sumweights 0
scalar RnisTest.iUpf.ppp[1].queue outgoingPacketLengths:vector:mean -nan
scalar RnisTest.iUpf.ppp[1].queue outgoingPacketLengths:vector:stddev nan
scalar RnisTest.iUpf.ppp[1].queue outgoingPacketLengths:vector:min inf
scalar RnisTest.iUpf.ppp[1].queue outgoingPacketLengths:vector:max -inf
scalar RnisTest.iUpf.ppp[1].queue outgoingPacketLengths:vector:starttime nan
scalar RnisTest.iUpf.ppp[1].queue outgoingPacketLengths:vector:endtime nan
scalar RnisTest.iUpf.ppp[1].queue outgoingDataRate:vector:count 0
scalar RnisTest.iUpf.ppp[1].queue outgoingDataRate:vector:sum 0
scalar RnisTest.iUpf.ppp[1].queue outgoingDataRate:vector:sumweights 0
scalar RnisTest.iUpf.ppp[1].queue outgoingDataRate:vector:mean -nan
scalar RnisTest.iUpf.ppp[1].queue outgoingDataRate:vector:stddev nan
scalar RnisTest.iUpf.ppp[1].queue outgoingDataRate:vector:min inf
scalar RnisTest.iUpf.ppp[1].queue outgoingDataRate:vector:max -inf
scalar RnisTest.iUpf.ppp[1].queue outgoingDataRate:vector:starttime nan
scalar RnisTest.iUpf.ppp[1].queue outgoingDataRate:vector:endtime nan
scalar RnisTest.iUpf.ppp[1].queue droppedPacketLengthsQueueOverflow:vector:count 0
scalar RnisTest.iUpf.ppp[1].queue droppedPacketLengthsQueueOverflow:vector:sum 0
scalar RnisTest.iUpf.ppp[1].queue droppedPacketLengthsQueueOverflow:vector:sumweights 0
scalar RnisTest.iUpf.ppp[1].queue droppedPacketLengthsQueueOverflow:vector:mean -nan
scalar RnisTest.iUpf.ppp[1].queue droppedPacketLengthsQueueOverflow:vector:stddev nan
scalar RnisTest.iUpf.ppp[1].queue droppedPacketLengthsQueueOverflow:vector:min inf
scalar RnisTest.iUpf.ppp[1].queue droppedPacketLengthsQueueOverflow:vector:max -inf
scalar RnisTest.iUpf.ppp[1].queue droppedPacketLengthsQueueOverflow:vector:starttime nan
scalar RnisTest.iUpf.ppp[1].queue droppedPacketLengthsQueueOverflow:vector:endtime nan
scalar RnisTest.iUpf.ppp[1].queue flowQueueingTime:vector:count 0
scalar RnisTest.iUpf.ppp[1].queue flowQueueingTime:vector:sum 0
scalar RnisTest.iUpf.ppp[1].queue flowQueueingTime:vector:sumweights 0
scalar RnisTest.iUpf.ppp[1].queue flowQueueingTime:vector:mean -nan
scalar RnisTest.iUpf.ppp[1].queue flowQueueingTime:vector:stddev nan
scalar RnisTest.iUpf.ppp[1].queue flowQueueingTime:vector:min inf
scalar RnisTest.iUpf.ppp[1].queue flowQueueingTime:vector:max -inf
scalar RnisTest.iUpf.ppp[1].queue flowQueueingTime:vector:starttime nan
scalar RnisTest.iUpf.ppp[1].queue flowQueueingTime:vector:endtime nan
scalar RnisTest.iUpf.ppp[1].queue flowIncomingDataRate:vector:count 0
scalar RnisTest.iUpf.ppp[1].queue flowIncomingDataRate:vector:sum 0
scalar RnisTest.iUpf.ppp[1].queue flowIncomingDataRate:vector:sumweights 0
scalar RnisTest.iUpf.ppp[1].queue flowIncomingDataRate:vector:mean -nan
scalar RnisTest.iUpf.ppp[1].queue flowIncomingDataRate:vector:stddev nan
scalar RnisTest.iUpf.ppp[1].queue flowIncomingDataRate:vector:min inf
scalar RnisTest.iUpf.ppp[1].queue flowIncomingDataRate:vector:max -inf
scalar RnisTest.iUpf.ppp[1].queue flowIncomingDataRate:vector:starttime nan
scalar RnisTest.iUpf.ppp[1].queue flowIncomingDataRate:vector:endtime nan
scalar RnisTest.iUpf.ppp[1].queue flowOutgoingDataRate:vector:count 0
scalar RnisTest.iUpf.ppp[1].queue flowOutgoingDataRate:vector:sum 0
scalar RnisTest.iUpf.ppp[1].queue flowOutgoingDataRate:vector:sumweights 0
scalar RnisTest.iUpf.ppp[1].queue flowOutgoingDataRate:vector:mean -nan
scalar RnisTest.iUpf.ppp[1].queue flowOutgoingDataRate:vector:stddev nan
scalar RnisTest.iUpf.ppp[1].queue flowOutgoingDataRate:vector:min inf
scalar RnisTest.iUpf.ppp[1].queue flowOutgoingDataRate:vector:max -inf
scalar RnisTest.iUpf.ppp[1].queue flowOutgoingDataRate:vector:starttime nan
scalar RnisTest.iUpf.ppp[1].queue flowOutgoingDataRate:vector:endtime nan
scalar RnisTest.iUpf.ppp[1].ppp transmissionState:vector:count 0
scalar RnisTest.iUpf.ppp[1].ppp transmissionState:vector:sum 0
scalar RnisTest.iUpf.ppp[1].ppp transmissionState:vector:sumweights 0
scalar RnisTest.iUpf.ppp[1].ppp transmissionState:vector:mean -nan
scalar RnisTest.iUpf.ppp[1].ppp transmissionState:vector:stddev nan
scalar RnisTest.iUpf.ppp[1].ppp transmissionState:vector:min inf
scalar RnisTest.iUpf.ppp[1].ppp transmissionState:vector:max -inf
scalar RnisTest.iUpf.ppp[1].ppp transmissionState:vector:starttime nan
scalar RnisTest.iUpf.ppp[1].ppp transmissionState:vector:endtime nan
scalar RnisTest.iUpf.ppp[1].ppp txPk:vector(packetBytes):count 0
scalar RnisTest.iUpf.ppp[1].ppp txPk:vector(packetBytes):sum 0
scalar RnisTest.iUpf.ppp[1].ppp txPk:vector(packetBytes):sumweights 0
scalar RnisTest.iUpf.ppp[1].ppp txPk:vector(packetBytes):mean -nan
scalar RnisTest.iUpf.ppp[1].ppp txPk:vector(packetBytes):stddev nan
scalar RnisTest.iUpf.ppp[1].ppp txPk:vector(packetBytes):min inf
scalar RnisTest.iUpf.ppp[1].ppp txPk:vector(packetBytes):max -inf
scalar RnisTest.iUpf.ppp[1].ppp txPk:vector(packetBytes):starttime nan
scalar RnisTest.iUpf.ppp[1].ppp txPk:vector(packetBytes):endtime nan
scalar RnisTest.iUpf.ppp[1].ppp rxPkOk:vector(packetBytes):count 0
scalar RnisTest.iUpf.ppp[1].ppp rxPkOk:vector(packetBytes):sum 0
scalar RnisTest.iUpf.ppp[1].ppp rxPkOk:vector(packetBytes):sumweights 0
scalar RnisTest.iUpf.ppp[1].ppp rxPkOk:vector(packetBytes):mean -nan
scalar RnisTest.iUpf.ppp[1].ppp rxPkOk:vector(packetBytes):stddev nan
scalar RnisTest.iUpf.ppp[1].ppp rxPkOk:vector(packetBytes):min inf
scalar RnisTest.iUpf.ppp[1].ppp rxPkOk:vector(packetBytes):max -inf
scalar RnisTest.iUpf.ppp[1].ppp rxPkOk:vector(packetBytes):starttime nan
scalar RnisTest.iUpf.ppp[1].ppp rxPkOk:vector(packetBytes):endtime nan
scalar RnisTest.iUpf.ppp[1].ppp packetDropIncorrectlyReceived:vector(packetBytes):count 0
scalar RnisTest.iUpf.ppp[1].ppp packetDropIncorrectlyReceived:vector(packetBytes):sum 0
scalar RnisTest.iUpf.ppp[1].ppp packetDropIncorrectlyReceived:vector(packetBytes):sumweights 0
scalar RnisTest.iUpf.ppp[1].ppp packetDropIncorrectlyReceived:vector(packetBytes):mean -nan
scalar RnisTest.iUpf.ppp[1].ppp packetDropIncorrectlyReceived:vector(packetBytes):stddev nan
scalar RnisTest.iUpf.ppp[1].ppp packetDropIncorrectlyReceived:vector(packetBytes):min inf
scalar RnisTest.iUpf.ppp[1].ppp packetDropIncorrectlyReceived:vector(packetBytes):max -inf
scalar RnisTest.iUpf.ppp[1].ppp packetDropIncorrectlyReceived:vector(packetBytes):starttime nan
scalar RnisTest.iUpf.ppp[1].ppp packetDropIncorrectlyReceived:vector(packetBytes):endtime nan
scalar RnisTest.iUpf.ppp[1].ppp packetDropInterfaceDown:vector(packetBytes):count 0
scalar RnisTest.iUpf.ppp[1].ppp packetDropInterfaceDown:vector(packetBytes):sum 0
scalar RnisTest.iUpf.ppp[1].ppp packetDropInterfaceDown:vector(packetBytes):sumweights 0
scalar RnisTest.iUpf.ppp[1].ppp packetDropInterfaceDown:vector(packetBytes):mean -nan
scalar RnisTest.iUpf.ppp[1].ppp packetDropInterfaceDown:vector(packetBytes):stddev nan
scalar RnisTest.iUpf.ppp[1].ppp packetDropInterfaceDown:vector(packetBytes):min inf
scalar RnisTest.iUpf.ppp[1].ppp packetDropInterfaceDown:vector(packetBytes):max -inf
scalar RnisTest.iUpf.ppp[1].ppp packetDropInterfaceDown:vector(packetBytes):starttime nan
scalar RnisTest.iUpf.ppp[1].ppp packetDropInterfaceDown:vector(packetBytes):endtime nan
scalar RnisTest.iUpf.ppp[1].ppp rcvdPkFromHl:vector(packetBytes):count 0
scalar RnisTest.iUpf.ppp[1].ppp rcvdPkFromHl:vector(packetBytes):sum 0
scalar RnisTest.iUpf.ppp[1].ppp rcvdPkFromHl:vector(packetBytes):sumweights 0
scalar RnisTest.iUpf.ppp[1].ppp rcvdPkFromHl:vector(packetBytes):mean -nan
scalar RnisTest.iUpf.ppp[1].ppp rcvdPkFromHl:vector(packetBytes):stddev nan
scalar RnisTest.iUpf.ppp[1].ppp rcvdPkFromHl:vector(packetBytes):min inf
scalar RnisTest.iUpf.ppp[1].ppp rcvdPkFromHl:vector(packetBytes):max -inf
scalar RnisTest.iUpf.ppp[1].ppp rcvdPkFromHl:vector(packetBytes):starttime nan
scalar RnisTest.iUpf.ppp[1].ppp rcvdPkFromHl:vector(packetBytes):endtime nan
scalar RnisTest.iUpf.ppp[1].ppp passedUpPk:vector(packetBytes):count 0
scalar RnisTest.iUpf.ppp[1].ppp passedUpPk:vector(packetBytes):sum 0
scalar RnisTest.iUpf.ppp[1].ppp passedUpPk:vector(packetBytes):sumweights 0
scalar RnisTest.iUpf.ppp[1].ppp passedUpPk:vector(packetBytes):mean -nan
scalar RnisTest.iUpf.ppp[1].ppp passedUpPk:vector(packetBytes):stddev nan
scalar RnisTest.iUpf.ppp[1].ppp passedUpPk:vector(packetBytes):min inf
scalar RnisTest.iUpf.ppp[1].ppp passedUpPk:vector(packetBytes):max -inf
scalar RnisTest.iUpf.ppp[1].ppp passedUpPk:vector(packetBytes):starttime nan
scalar RnisTest.iUpf.ppp[1].ppp passedUpPk:vector(packetBytes):endtime nan
scalar RnisTest.iUpf.ppp[1] packetDropInterfaceDown:vector(packetBytes):count 0
scalar RnisTest.iUpf.ppp[1] packetDropInterfaceDown:vector(packetBytes):sum 0
scalar RnisTest.iUpf.ppp[1] packetDropInterfaceDown:vector(packetBytes):sumweights 0
scalar RnisTest.iUpf.ppp[1] packetDropInterfaceDown:vector(packetBytes):mean -nan
scalar RnisTest.iUpf.ppp[1] packetDropInterfaceDown:vector(packetBytes):stddev nan
scalar RnisTest.iUpf.ppp[1] packetDropInterfaceDown:vector(packetBytes):min inf
scalar RnisTest.iUpf.ppp[1] packetDropInterfaceDown:vector(packetBytes):max -inf
scalar RnisTest.iUpf.ppp[1] packetDropInterfaceDown:vector(packetBytes):starttime nan
scalar RnisTest.iUpf.ppp[1] packetDropInterfaceDown:vector(packetBytes):endtime nan
scalar RnisTest.iUpf.ppp[1] packetDropNoCarrier:vector(packetBytes):count 0
scalar RnisTest.iUpf.ppp[1] packetDropNoCarrier:vector(packetBytes):sum 0
scalar RnisTest.iUpf.ppp[1] packetDropNoCarrier:vector(packetBytes):sumweights 0
scalar RnisTest.iUpf.ppp[1] packetDropNoCarrier:vector(packetBytes):mean -nan
scalar RnisTest.iUpf.ppp[1] packetDropNoCarrier:vector(packetBytes):stddev nan
scalar RnisTest.iUpf.ppp[1] packetDropNoCarrier:vector(packetBytes):min inf
scalar RnisTest.iUpf.ppp[1] packetDropNoCarrier:vector(packetBytes):max -inf
scalar RnisTest.iUpf.ppp[1] packetDropNoCarrier:vector(packetBytes):starttime nan
scalar RnisTest.iUpf.ppp[1] packetDropNoCarrier:vector(packetBytes):endtime nan
scalar RnisTest.iUpf.ppp[2].queue queueLength:vector:count 0
scalar RnisTest.iUpf.ppp[2].queue queueLength:vector:sum 0
scalar RnisTest.iUpf.ppp[2].queue queueLength:vector:sumweights 0
scalar RnisTest.iUpf.ppp[2].queue queueLength:vector:mean -nan
scalar RnisTest.iUpf.ppp[2].queue queueLength:vector:stddev nan
scalar RnisTest.iUpf.ppp[2].queue queueLength:vector:min inf
scalar RnisTest.iUpf.ppp[2].queue queueLength:vector:max -inf
scalar RnisTest.iUpf.ppp[2].queue queueLength:vector:starttime nan
scalar RnisTest.iUpf.ppp[2].queue queueLength:vector:endtime nan
scalar RnisTest.iUpf.ppp[2].queue queueBitLength:vector:count 0
scalar RnisTest.iUpf.ppp[2].queue queueBitLength:vector:sum 0
scalar RnisTest.iUpf.ppp[2].queue queueBitLength:vector:sumweights 0
scalar RnisTest.iUpf.ppp[2].queue queueBitLength:vector:mean -nan
scalar RnisTest.iUpf.ppp[2].queue queueBitLength:vector:stddev nan
scalar RnisTest.iUpf.ppp[2].queue queueBitLength:vector:min inf
scalar RnisTest.iUpf.ppp[2].queue queueBitLength:vector:max -inf
scalar RnisTest.iUpf.ppp[2].queue queueBitLength:vector:starttime nan
scalar RnisTest.iUpf.ppp[2].queue queueBitLength:vector:endtime nan
scalar RnisTest.iUpf.ppp[2].queue queueingTime:vector:count 0
scalar RnisTest.iUpf.ppp[2].queue queueingTime:vector:sum 0
scalar RnisTest.iUpf.ppp[2].queue queueingTime:vector:sumweights 0
scalar RnisTest.iUpf.ppp[2].queue queueingTime:vector:mean -nan
scalar RnisTest.iUpf.ppp[2].queue queueingTime:vector:stddev nan
scalar RnisTest.iUpf.ppp[2].queue queueingTime:vector:min inf
scalar RnisTest.iUpf.ppp[2].queue queueingTime:vector:max -inf
scalar RnisTest.iUpf.ppp[2].queue queueingTime:vector:starttime nan
scalar RnisTest.iUpf.ppp[2].queue queueingTime:vector:endtime nan
scalar RnisTest.iUpf.ppp[2].queue incomingPacketLengths:vector:count 0
scalar RnisTest.iUpf.ppp[2].queue incomingPacketLengths:vector:sum 0
scalar RnisTest.iUpf.ppp[2].queue incomingPacketLengths:vector:sumweights 0
scalar RnisTest.iUpf.ppp[2].queue incomingPacketLengths:vector:mean -nan
scalar RnisTest.iUpf.ppp[2].queue incomingPacketLengths:vector:stddev nan
scalar RnisTest.iUpf.ppp[2].queue incomingPacketLengths:vector:min inf
scalar RnisTest.iUpf.ppp[2].queue incomingPacketLengths:vector:max -inf
scalar RnisTest.iUpf.ppp[2].queue incomingPacketLengths:vector:starttime nan
scalar RnisTest.iUpf.ppp[2].queue incomingPacketLengths:vector:endtime nan
scalar RnisTest.iUpf.ppp[2].queue incomingDataRate:vector:count 0
scalar RnisTest.iUpf.ppp[2].queue incomingDataRate:vector:sum 0
scalar RnisTest.iUpf.ppp[2].queue incomingDataRate:vector:sumweights 0
scalar RnisTest.iUpf.ppp[2].queue incomingDataRate:vector:mean -nan
scalar RnisTest.iUpf.ppp[2].queue incomingDataRate:vector:stddev nan
scalar RnisTest.iUpf.ppp[2].queue incomingDataRate:vector:min inf
scalar RnisTest.iUpf.ppp[2].queue incomingDataRate:vector:max -inf
scalar RnisTest.iUpf.ppp[2].queue incomingDataRate:vector:starttime nan
scalar RnisTest.iUpf.ppp[2].queue incomingDataRate:vector:endtime nan
scalar RnisTest.iUpf.ppp[2].queue outgoingPacketLengths:vector:count 0
scalar RnisTest.iUpf.ppp[2].queue outgoingPacketLengths:vector:sum 0
scalar RnisTest.iUpf.ppp[2].queue outgoingPacketLengths:vector:sumweights 0
scalar RnisTest.iUpf.ppp[2].queue outgoingPacketLengths:vector:mean -nan
scalar RnisTest.iUpf.ppp[2].queue outgoingPacketLengths:vector:stddev nan
scalar RnisTest.iUpf.ppp[2].queue outgoingPacketLengths:vector:min inf
scalar RnisTest.iUpf.ppp[2].queue outgoingPacketLengths:vector:max -inf
scalar RnisTest.iUpf.ppp[2].queue outgoingPacketLengths:vector:starttime nan
scalar RnisTest.iUpf.ppp[2].queue outgoingPacketLengths:vector:endtime nan
scalar RnisTest.iUpf.ppp[2].queue outgoingDataRate:vector:count 0
scalar RnisTest.iUpf.ppp[2].queue outgoingDataRate:vector:sum 0
scalar RnisTest.iUpf.ppp[2].queue outgoingDataRate:vector:sumweights 0
scalar RnisTest.iUpf.ppp[2].queue outgoingDataRate:vector:mean -nan
scalar RnisTest.iUpf.ppp[2].queue outgoingDataRate:vector:stddev nan
scalar RnisTest.iUpf.ppp[2].queue outgoingDataRate:vector:min inf
scalar RnisTest.iUpf.ppp[2].queue outgoingDataRate:vector:max -inf
scalar RnisTest.iUpf.ppp[2].queue outgoingDataRate:vector:starttime nan
scalar RnisTest.iUpf.ppp[2].queue outgoingDataRate:vector:endtime nan
scalar RnisTest.iUpf.ppp[2].queue droppedPacketLengthsQueueOverflow:vector:count 0
scalar RnisTest.iUpf.ppp[2].queue droppedPacketLengthsQueueOverflow:vector:sum 0
scalar RnisTest.iUpf.ppp[2].queue droppedPacketLengthsQueueOverflow:vector:sumweights 0
scalar RnisTest.iUpf.ppp[2].queue droppedPacketLengthsQueueOverflow:vector:mean -nan
scalar RnisTest.iUpf.ppp[2].queue droppedPacketLengthsQueueOverflow:vector:stddev nan
scalar RnisTest.iUpf.ppp[2].queue droppedPacketLengthsQueueOverflow:vector:min inf
scalar RnisTest.iUpf.ppp[2].queue droppedPacketLengthsQueueOverflow:vector:max -inf
scalar RnisTest.iUpf.ppp[2].queue droppedPacketLengthsQueueOverflow:vector:starttime nan
scalar RnisTest.iUpf.ppp[2].queue droppedPacketLengthsQueueOverflow:vector:endtime nan
scalar RnisTest.iUpf.ppp[2].queue flowQueueingTime:vector:count 0
scalar RnisTest.iUpf.ppp[2].queue flowQueueingTime:vector:sum 0
scalar RnisTest.iUpf.ppp[2].queue flowQueueingTime:vector:sumweights 0
scalar RnisTest.iUpf.ppp[2].queue flowQueueingTime:vector:mean -nan
scalar RnisTest.iUpf.ppp[2].queue flowQueueingTime:vector:stddev nan
scalar RnisTest.iUpf.ppp[2].queue flowQueueingTime:vector:min inf
scalar RnisTest.iUpf.ppp[2].queue flowQueueingTime:vector:max -inf
scalar RnisTest.iUpf.ppp[2].queue flowQueueingTime:vector:starttime nan
scalar RnisTest.iUpf.ppp[2].queue flowQueueingTime:vector:endtime nan
scalar RnisTest.iUpf.ppp[2].queue flowIncomingDataRate:vector:count 0
scalar RnisTest.iUpf.ppp[2].queue flowIncomingDataRate:vector:sum 0
scalar RnisTest.iUpf.ppp[2].queue flowIncomingDataRate:vector:sumweights 0
scalar RnisTest.iUpf.ppp[2].queue flowIncomingDataRate:vector:mean -nan
scalar RnisTest.iUpf.ppp[2].queue flowIncomingDataRate:vector:stddev nan
scalar RnisTest.iUpf.ppp[2].queue flowIncomingDataRate:vector:min inf
scalar RnisTest.iUpf.ppp[2].queue flowIncomingDataRate:vector:max -inf
scalar RnisTest.iUpf.ppp[2].queue flowIncomingDataRate:vector:starttime nan
scalar RnisTest.iUpf.ppp[2].queue flowIncomingDataRate:vector:endtime nan
scalar RnisTest.iUpf.ppp[2].queue flowOutgoingDataRate:vector:count 0
scalar RnisTest.iUpf.ppp[2].queue flowOutgoingDataRate:vector:sum 0
scalar RnisTest.iUpf.ppp[2].queue flowOutgoingDataRate:vector:sumweights 0
scalar RnisTest.iUpf.ppp[2].queue flowOutgoingDataRate:vector:mean -nan
scalar RnisTest.iUpf.ppp[2].queue flowOutgoingDataRate:vector:stddev nan
scalar RnisTest.iUpf.ppp[2].queue flowOutgoingDataRate:vector:min inf
scalar RnisTest.iUpf.ppp[2].queue flowOutgoingDataRate:vector:max -inf
scalar RnisTest.iUpf.ppp[2].queue flowOutgoingDataRate:vector:starttime nan
scalar RnisTest.iUpf.ppp[2].queue flowOutgoingDataRate:vector:endtime nan
scalar RnisTest.iUpf.ppp[2].ppp transmissionState:vector:count 0
scalar RnisTest.iUpf.ppp[2].ppp transmissionState:vector:sum 0
scalar RnisTest.iUpf.ppp[2].ppp transmissionState:vector:sumweights 0
scalar RnisTest.iUpf.ppp[2].ppp transmissionState:vector:mean -nan
scalar RnisTest.iUpf.ppp[2].ppp transmissionState:vector:stddev nan
scalar RnisTest.iUpf.ppp[2].ppp transmissionState:vector:min inf
scalar RnisTest.iUpf.ppp[2].ppp transmissionState:vector:max -inf
scalar RnisTest.iUpf.ppp[2].ppp transmissionState:vector:starttime nan
scalar RnisTest.iUpf.ppp[2].ppp transmissionState:vector:endtime nan
scalar RnisTest.iUpf.ppp[2].ppp txPk:vector(packetBytes):count 0
scalar RnisTest.iUpf.ppp[2].ppp txPk:vector(packetBytes):sum 0
scalar RnisTest.iUpf.ppp[2].ppp txPk:vector(packetBytes):sumweights 0
scalar RnisTest.iUpf.ppp[2].ppp txPk:vector(packetBytes):mean -nan
scalar RnisTest.iUpf.ppp[2].ppp txPk:vector(packetBytes):stddev nan
scalar RnisTest.iUpf.ppp[2].ppp txPk:vector(packetBytes):min inf
scalar RnisTest.iUpf.ppp[2].ppp txPk:vector(packetBytes):max -inf
scalar RnisTest.iUpf.ppp[2].ppp txPk:vector(packetBytes):starttime nan
scalar RnisTest.iUpf.ppp[2].ppp txPk:vector(packetBytes):endtime nan
scalar RnisTest.iUpf.ppp[2].ppp rxPkOk:vector(packetBytes):count 0
scalar RnisTest.iUpf.ppp[2].ppp rxPkOk:vector(packetBytes):sum 0
scalar RnisTest.iUpf.ppp[2].ppp rxPkOk:vector(packetBytes):sumweights 0
scalar RnisTest.iUpf.ppp[2].ppp rxPkOk:vector(packetBytes):mean -nan
scalar RnisTest.iUpf.ppp[2].ppp rxPkOk:vector(packetBytes):stddev nan
scalar RnisTest.iUpf.ppp[2].ppp rxPkOk:vector(packetBytes):min inf
scalar RnisTest.iUpf.ppp[2].ppp rxPkOk:vector(packetBytes):max -inf
scalar RnisTest.iUpf.ppp[2].ppp rxPkOk:vector(packetBytes):starttime nan
scalar RnisTest.iUpf.ppp[2].ppp rxPkOk:vector(packetBytes):endtime nan
scalar RnisTest.iUpf.ppp[2].ppp packetDropIncorrectlyReceived:vector(packetBytes):count 0
scalar RnisTest.iUpf.ppp[2].ppp packetDropIncorrectlyReceived:vector(packetBytes):sum 0
scalar RnisTest.iUpf.ppp[2].ppp packetDropIncorrectlyReceived:vector(packetBytes):sumweights 0
scalar RnisTest.iUpf.ppp[2].ppp packetDropIncorrectlyReceived:vector(packetBytes):mean -nan
scalar RnisTest.iUpf.ppp[2].ppp packetDropIncorrectlyReceived:vector(packetBytes):stddev nan
scalar RnisTest.iUpf.ppp[2].ppp packetDropIncorrectlyReceived:vector(packetBytes):min inf
scalar RnisTest.iUpf.ppp[2].ppp packetDropIncorrectlyReceived:vector(packetBytes):max -inf
scalar RnisTest.iUpf.ppp[2].ppp packetDropIncorrectlyReceived:vector(packetBytes):starttime nan
scalar RnisTest.iUpf.ppp[2].ppp packetDropIncorrectlyReceived:vector(packetBytes):endtime nan
[...]
scalar RnisTest.mecHost.virtualisationInfrastructure.tcp.conn-32 sndNxt:vector:max -inf
scalar RnisTest.mecHost.virtualisationInfrastructure.tcp.conn-32 sndNxt:vector:starttime nan
scalar RnisTest.mecHost.virtualisationInfrastructure.tcp.conn-32 sndNxt:vector:endtime nan
scalar RnisTest.mecHost.virtualisationInfrastructure.tcp.conn-32 sndAck:vector:count 0
scalar RnisTest.mecHost.virtualisationInfrastructure.tcp.conn-32 sndAck:vector:sum 0
scalar RnisTest.mecHost.virtualisationInfrastructure.tcp.conn-32 sndAck:vector:sumweights 0
scalar RnisTest.mecHost.virtualisationInfrastructure.tcp.conn-32 sndAck:vector:mean -nan
scalar RnisTest.mecHost.virtualisationInfrastructure.tcp.conn-32 sndAck:vector:stddev nan
scalar RnisTest.mecHost.virtualisationInfrastructure.tcp.conn-32 sndAck:vector:min inf
scalar RnisTest.mecHost.virtualisationInfrastructure.tcp.conn-32 sndAck:vector:max -inf
scalar RnisTest.mecHost.virtualisationInfrastructure.tcp.conn-32 sndAck:vector:starttime nan
scalar RnisTest.mecHost.virtualisationInfrastructure.tcp.conn-32 sndAck:vector:endtime nan
scalar RnisTest.mecHost.virtualisationInfrastructure.tcp.conn-32 rcvSeq:vector:count 0
scalar RnisTest.mecHost.virtualisationInfrastructure.tcp.conn-32 rcvSeq:vector:sum 0
scalar RnisTest.mecHost.virtualisationInfrastructure.tcp.conn-32 rcvSeq:vector:sumweights 0
scalar RnisTest.mecHost.virtualisationInfrastructure.tcp.conn-32 rcvSeq:vector:mean -nan
scalar RnisTest.mecHost.virtualisationInfrastructure.tcp.conn-32 rcvSeq:vector:stddev nan
scalar RnisTest.mecHost.virtualisationInfrastructure.tcp.conn-32 rcvSeq:vector:min inf
scalar RnisTest.mecHost.virtualisationInfrastructure.tcp.conn-32 rcvSeq:vector:max -inf
scalar RnisTest.mecHost.virtualisationInfrastructure.tcp.conn-32 rcvSeq:vector:starttime nan
scalar RnisTest.mecHost.virtualisationInfrastructure.tcp.conn-32 rcvSeq:vector:endtime nan
scalar RnisTest.mecHost.virtualisationInfrastructure.tcp.conn-32 rcvAck:vector:count 0
scalar RnisTest.mecHost.virtualisationInfrastructure.tcp.conn-32 rcvAck:vector:sum 0
scalar RnisTest.mecHost.virtualisationInfrastructure.tcp.conn-32 rcvAck:vector:sumweights 0
scalar RnisTest.mecHost.virtualisationInfrastructure.tcp.conn-32 rcvAck:vector:mean -nan
scalar RnisTest.mecHost.virtualisationInfrastructure.tcp.conn-32 rcvAck:vector:stddev nan
scalar RnisTest.mecHost.virtualisationInfrastructure.tcp.conn-32 rcvAck:vector:min inf
scalar RnisTest.mecHost.virtualisationInfrastructure.tcp.conn-32 rcvAck:vector:max -inf
scalar RnisTest.mecHost.virtualisationInfrastructure.tcp.conn-32 rcvAck:vector:starttime nan
scalar RnisTest.mecHost.virtualisationInfrastructure.tcp.conn-32 rcvAck:vector:endtime nan
scalar RnisTest.mecHost.virtualisationInfrastructure.tcp.conn-32 unacked:vector:count 0
scalar RnisTest.mecHost.virtualisationInfrastructure.tcp.conn-32 unacked:vector:sum 0
scalar RnisTest.mecHost.virtualisationInfrastructure.tcp.conn-32 unacked:vector:sumweights 0
scalar RnisTest.mecHost.virtualisationInfrastructure.tcp.conn-32 unacked:vector:mean -nan
scalar RnisTest.mecHost.virtualisationInfrastructure.tcp.conn-32 unacked:vector:stddev nan
scalar RnisTest.mecHost.virtualisationInfrastructure.tcp.conn-32 unacked:vector:min inf
scalar RnisTest.mecHost.virtualisationInfrastructure.tcp.conn-32 unacked:vector:max -inf
scalar RnisTest.mecHost.virtualisationInfrastructure.tcp.conn-32 unacked:vector:starttime nan
scalar RnisTest.mecHost.virtualisationInfrastructure.tcp.conn-32 unacked:vector:endtime nan
scalar RnisTest.mecHost.virtualisationInfrastructure.tcp.conn-32 dupAcks:vector:count 0
scalar RnisTest.mecHost.virtualisationInfrastructure.tcp.conn-32 dupAcks:vector:sum 0
scalar RnisTest.mecHost.virtualisationInfrastructure.tcp.conn-32 dupAcks:vector:sumweights 0
scalar RnisTest.mecHost.virtualisationInfrastructure.tcp.conn-32 dupAcks:vector:mean -nan
scalar RnisTest.mecHost.virtualisationInfrastructure.tcp.conn-32 dupAcks:vector:stddev nan
scalar RnisTest.mecHost.virtualisationInfrastructure.tcp.conn-32 dupAcks:vector:min inf
scalar RnisTest.mecHost.virtualisationInfrastructure.tcp.conn-32 dupAcks:vector:max -inf
scalar RnisTest.mecHost.virtualisationInfrastructure.tcp.conn-32 dupAcks:vector:starttime nan
scalar RnisTest.mecHost.virtualisationInfrastructure.tcp.conn-32 dupAcks:vector:endtime nan
scalar RnisTest.mecHost.virtualisationInfrastructure.tcp.conn-32 pipe:vector:count 0
scalar RnisTest.mecHost.virtualisationInfrastructure.tcp.conn-32 pipe:vector:sum 0
scalar RnisTest.mecHost.virtualisationInfrastructure.tcp.conn-32 pipe:vector:sumweights 0
scalar RnisTest.mecHost.virtualisationInfrastructure.tcp.conn-32 pipe:vector:mean -nan
scalar RnisTest.mecHost.virtualisationInfrastructure.tcp.conn-32 pipe:vector:stddev nan
scalar RnisTest.mecHost.virtualisationInfrastructure.tcp.conn-32 pipe:vector:min inf
scalar RnisTest.mecHost.virtualisationInfrastructure.tcp.conn-32 pipe:vector:max -inf
scalar RnisTest.mecHost.virtualisationInfrastructure.tcp.conn-32 pipe:vector:starttime nan
scalar RnisTest.mecHost.virtualisationInfrastructure.tcp.conn-32 pipe:vector:endtime nan
scalar RnisTest.mecHost.virtualisationInfrastructure.tcp.conn-32 sndSacks:vector:count 0
scalar RnisTest.mecHost.virtualisationInfrastructure.tcp.conn-32 sndSacks:vector:sum 0
scalar RnisTest.mecHost.virtualisationInfrastructure.tcp.conn-32 sndSacks:vector:sumweights 0
scalar RnisTest.mecHost.virtualisationInfrastructure.tcp.conn-32 sndSacks:vector:mean -nan
scalar RnisTest.mecHost.virtualisationInfrastructure.tcp.conn-32 sndSacks:vector:stddev nan
scalar RnisTest.mecHost.virtualisationInfrastructure.tcp.conn-32 sndSacks:vector:min inf
scalar RnisTest.mecHost.virtualisationInfrastructure.tcp.conn-32 sndSacks:vector:max -inf
scalar RnisTest.mecHost.virtualisationInfrastructure.tcp.conn-32 sndSacks:vector:starttime nan
scalar RnisTest.mecHost.virtualisationInfrastructure.tcp.conn-32 sndSacks:vector:endtime nan
scalar RnisTest.mecHost.virtualisationInfrastructure.tcp.conn-32 rcvSacks:vector:count 0
scalar RnisTest.mecHost.virtualisationInfrastructure.tcp.conn-32 rcvSacks:vector:sum 0
scalar RnisTest.mecHost.virtualisationInfrastructure.tcp.conn-32 rcvSacks:vector:sumweights 0
scalar RnisTest.mecHost.virtualisationInfrastructure.tcp.conn-32 rcvSacks:vector:mean -nan
scalar RnisTest.mecHost.virtualisationInfrastructure.tcp.conn-32 rcvSacks:vector:stddev nan
scalar RnisTest.mecHost.virtualisationInfrastructure.tcp.conn-32 rcvSacks:vector:min inf
scalar RnisTest.mecHost.virtualisationInfrastructure.tcp.conn-32 rcvSacks:vector:max -inf
scalar RnisTest.mecHost.virtualisationInfrastructure.tcp.conn-32 rcvSacks:vector:starttime nan
scalar RnisTest.mecHost.virtualisationInfrastructure.tcp.conn-32 rcvSacks:vector:endtime nan
scalar RnisTest.mecHost.virtualisationInfrastructure.tcp.conn-32 rcvOooSeg:vector:count 0
scalar RnisTest.mecHost.virtualisationInfrastructure.tcp.conn-32 rcvOooSeg:vector:sum 0
scalar RnisTest.mecHost.virtualisationInfrastructure.tcp.conn-32 rcvOooSeg:vector:sumweights 0
scalar RnisTest.mecHost.virtualisationInfrastructure.tcp.conn-32 rcvOooSeg:vector:mean -nan
scalar RnisTest.mecHost.virtualisationInfrastructure.tcp.conn-32 rcvOooSeg:vector:stddev nan
scalar RnisTest.mecHost.virtualisationInfrastructure.tcp.conn-32 rcvOooSeg:vector:min inf
scalar RnisTest.mecHost.virtualisationInfrastructure.tcp.conn-32 rcvOooSeg:vector:max -inf
scalar RnisTest.mecHost.virtualisationInfrastructure.tcp.conn-32 rcvOooSeg:vector:starttime nan
scalar RnisTest.mecHost.virtualisationInfrastructure.tcp.conn-32 rcvOooSeg:vector:endtime nan
scalar RnisTest.mecHost.virtualisationInfrastructure.tcp.conn-32 rcvNASeg:vector:count 0
scalar RnisTest.mecHost.virtualisationInfrastructure.tcp.conn-32 rcvNASeg:vector:sum 0
scalar RnisTest.mecHost.virtualisationInfrastructure.tcp.conn-32 rcvNASeg:vector:sumweights 0
scalar RnisTest.mecHost.virtualisationInfrastructure.tcp.conn-32 rcvNASeg:vector:mean -nan
scalar RnisTest.mecHost.virtualisationInfrastructure.tcp.conn-32 rcvNASeg:vector:stddev nan
scalar RnisTest.mecHost.virtualisationInfrastructure.tcp.conn-32 rcvNASeg:vector:min inf
scalar RnisTest.mecHost.virtualisationInfrastructure.tcp.conn-32 rcvNASeg:vector:max -inf
scalar RnisTest.mecHost.virtualisationInfrastructure.tcp.conn-32 rcvNASeg:vector:starttime nan
scalar RnisTest.mecHost.virtualisationInfrastructure.tcp.conn-32 rcvNASeg:vector:endtime nan
scalar RnisTest.mecHost.virtualisationInfrastructure.tcp.conn-32 sackedBytes:vector:count 0
scalar RnisTest.mecHost.virtualisationInfrastructure.tcp.conn-32 sackedBytes:vector:sum 0
scalar RnisTest.mecHost.virtualisationInfrastructure.tcp.conn-32 sackedBytes:vector:sumweights 0
scalar RnisTest.mecHost.virtualisationInfrastructure.tcp.conn-32 sackedBytes:vector:mean -nan
scalar RnisTest.mecHost.virtualisationInfrastructure.tcp.conn-32 sackedBytes:vector:stddev nan
scalar RnisTest.mecHost.virtualisationInfrastructure.tcp.conn-32 sackedBytes:vector:min inf
scalar RnisTest.mecHost.virtualisationInfrastructure.tcp.conn-32 sackedBytes:vector:max -inf
scalar RnisTest.mecHost.virtualisationInfrastructure.tcp.conn-32 sackedBytes:vector:starttime nan
scalar RnisTest.mecHost.virtualisationInfrastructure.tcp.conn-32 sackedBytes:vector:endtime nan
scalar RnisTest.mecHost.virtualisationInfrastructure.tcp.conn-32 tcpRcvQueueBytes:vector:count 0
scalar RnisTest.mecHost.virtualisationInfrastructure.tcp.conn-32 tcpRcvQueueBytes:vector:sum 0
scalar RnisTest.mecHost.virtualisationInfrastructure.tcp.conn-32 tcpRcvQueueBytes:vector:sumweights 0
scalar RnisTest.mecHost.virtualisationInfrastructure.tcp.conn-32 tcpRcvQueueBytes:vector:mean -nan
scalar RnisTest.mecHost.virtualisationInfrastructure.tcp.conn-32 tcpRcvQueueBytes:vector:stddev nan
scalar RnisTest.mecHost.virtualisationInfrastructure.tcp.conn-32 tcpRcvQueueBytes:vector:min inf
scalar RnisTest.mecHost.virtualisationInfrastructure.tcp.conn-32 tcpRcvQueueBytes:vector:max -inf
scalar RnisTest.mecHost.virtualisationInfrastructure.tcp.conn-32 tcpRcvQueueBytes:vector:starttime nan
scalar RnisTest.mecHost.virtualisationInfrastructure.tcp.conn-32 tcpRcvQueueBytes:vector:endtime nan
scalar RnisTest.mecHost.virtualisationInfrastructure.tcp.conn-32 tcpRcvQueueDrops:vector:count 0
scalar RnisTest.mecHost.virtualisationInfrastructure.tcp.conn-32 tcpRcvQueueDrops:vector:sum 0
scalar RnisTest.mecHost.virtualisationInfrastructure.tcp.conn-32 tcpRcvQueueDrops:vector:sumweights 0
scalar RnisTest.mecHost.virtualisationInfrastructure.tcp.conn-32 tcpRcvQueueDrops:vector:mean -nan
scalar RnisTest.mecHost.virtualisationInfrastructure.tcp.conn-32 tcpRcvQueueDrops:vector:stddev nan
scalar RnisTest.mecHost.virtualisationInfrastructure.tcp.conn-32 tcpRcvQueueDrops:vector:min inf
scalar RnisTest.mecHost.virtualisationInfrastructure.tcp.conn-32 tcpRcvQueueDrops:vector:max -inf
scalar RnisTest.mecHost.virtualisationInfrastructure.tcp.conn-32 tcpRcvQueueDrops:vector:starttime nan
scalar RnisTest.mecHost.virtualisationInfrastructure.tcp.conn-32 tcpRcvQueueDrops:vector:endtime nan
scalar RnisTest.mecHost.virtualisationInfrastructure.tcp.conn-32 tcpRcvPayloadBytes:vector:count 0
scalar RnisTest.mecHost.virtualisationInfrastructure.tcp.conn-32 tcpRcvPayloadBytes:vector:sum 0
scalar RnisTest.mecHost.virtualisationInfrastructure.tcp.conn-32 tcpRcvPayloadBytes:vector:sumweights 0
scalar RnisTest.mecHost.virtualisationInfrastructure.tcp.conn-32 tcpRcvPayloadBytes:vector:mean -nan
scalar RnisTest.mecHost.virtualisationInfrastructure.tcp.conn-32 tcpRcvPayloadBytes:vector:stddev nan
scalar RnisTest.mecHost.virtualisationInfrastructure.tcp.conn-32 tcpRcvPayloadBytes:vector:min inf
scalar RnisTest.mecHost.virtualisationInfrastructure.tcp.conn-32 tcpRcvPayloadBytes:vector:max -inf
scalar RnisTest.mecHost.virtualisationInfrastructure.tcp.conn-32 tcpRcvPayloadBytes:vector:starttime nan
scalar RnisTest.mecHost.virtualisationInfrastructure.tcp.conn-32 tcpRcvPayloadBytes:vector:endtime nan
scalar RnisTest.mecHost.virtualisationInfrastructure.tcp.conn-32 cwnd:vector:count 0
scalar RnisTest.mecHost.virtualisationInfrastructure.tcp.conn-32 cwnd:vector:sum 0
scalar RnisTest.mecHost.virtualisationInfrastructure.tcp.conn-32 cwnd:vector:sumweights 0
scalar RnisTest.mecHost.virtualisationInfrastructure.tcp.conn-32 cwnd:vector:mean -nan
scalar RnisTest.mecHost.virtualisationInfrastructure.tcp.conn-32 cwnd:vector:stddev nan
scalar RnisTest.mecHost.virtualisationInfrastructure.tcp.conn-32 cwnd:vector:min inf
scalar RnisTest.mecHost.virtualisationInfrastructure.tcp.conn-32 cwnd:vector:max -inf
scalar RnisTest.mecHost.virtualisationInfrastructure.tcp.conn-32 cwnd:vector:starttime nan
scalar RnisTest.mecHost.virtualisationInfrastructure.tcp.conn-32 cwnd:vector:endtime nan
scalar RnisTest.mecHost.virtualisationInfrastructure.tcp.conn-32 ssthresh:vector:count 0
scalar RnisTest.mecHost.virtualisationInfrastructure.tcp.conn-32 ssthresh:vector:sum 0
scalar RnisTest.mecHost.virtualisationInfrastructure.tcp.conn-32 ssthresh:vector:sumweights 0
scalar RnisTest.mecHost.virtualisationInfrastructure.tcp.conn-32 ssthresh:vector:mean -nan
scalar RnisTest.mecHost.virtualisationInfrastructure.tcp.conn-32 ssthresh:vector:stddev nan
scalar RnisTest.mecHost.virtualisationInfrastructure.tcp.conn-32 ssthresh:vector:min inf
scalar RnisTest.mecHost.virtualisationInfrastructure.tcp.conn-32 ssthresh:vector:max -inf
scalar RnisTest.mecHost.virtualisationInfrastructure.tcp.conn-32 ssthresh:vector:starttime nan
scalar RnisTest.mecHost.virtualisationInfrastructure.tcp.conn-32 ssthresh:vector:endtime nan
scalar RnisTest.mecHost.virtualisationInfrastructure.tcp.conn-32 rtt:vector:count 0
scalar RnisTest.mecHost.virtualisationInfrastructure.tcp.conn-32 rtt:vector:sum 0
scalar RnisTest.mecHost.virtualisationInfrastructure.tcp.conn-32 rtt:vector:sumweights 0
scalar RnisTest.mecHost.virtualisationInfrastructure.tcp.conn-32 rtt:vector:mean -nan
scalar RnisTest.mecHost.virtualisationInfrastructure.tcp.conn-32 rtt:vector:stddev nan
scalar RnisTest.mecHost.virtualisationInfrastructure.tcp.conn-32 rtt:vector:min inf
scalar RnisTest.mecHost.virtualisationInfrastructure.tcp.conn-32 rtt:vector:max -inf
scalar RnisTest.mecHost.virtualisationInfrastructure.tcp.conn-32 rtt:vector:starttime nan
scalar RnisTest.mecHost.virtualisationInfrastructure.tcp.conn-32 rtt:vector:endtime nan
scalar RnisTest.mecHost.virtualisationInfrastructure.tcp.conn-32 srtt:vector:count 0
scalar RnisTest.mecHost.virtualisationInfrastructure.tcp.conn-32 srtt:vector:sum 0
scalar RnisTest.mecHost.virtualisationInfrastructure.tcp.conn-32 srtt:vector:sumweights 0
scalar RnisTest.mecHost.virtualisationInfrastructure.tcp.conn-32 srtt:vector:mean -nan
scalar RnisTest.mecHost.virtualisationInfrastructure.tcp.conn-32 srtt:vector:stddev nan
scalar RnisTest.mecHost.virtualisationInfrastructure.tcp.conn-32 srtt:vector:min inf
scalar RnisTest.mecHost.virtualisationInfrastructure.tcp.conn-32 srtt:vector:max -inf
scalar RnisTest.mecHost.virtualisationInfrastructure.tcp.conn-32 srtt:vector:starttime nan
scalar RnisTest.mecHost.virtualisationInfrastructure.tcp.conn-32 srtt:vector:endtime nan
scalar RnisTest.mecHost.virtualisationInfrastructure.tcp.conn-32 rttvar:vector:count 0
scalar RnisTest.mecHost.virtualisationInfrastructure.tcp.conn-32 rttvar:vector:sum 0
scalar RnisTest.mecHost.virtualisationInfrastructure.tcp.conn-32 rttvar:vector:sumweights 0
scalar RnisTest.mecHost.virtualisationInfrastructure.tcp.conn-32 rttvar:vector:mean -nan
scalar RnisTest.mecHost.virtualisationInfrastructure.tcp.conn-32 rttvar:vector:stddev nan
scalar RnisTest.mecHost.virtualisationInfrastructure.tcp.conn-32 rttvar:vector:min inf
scalar RnisTest.mecHost.virtualisationInfrastructure.tcp.conn-32 rttvar:vector:max -inf
scalar RnisTest.mecHost.virtualisationInfrastructure.tcp.conn-32 rttvar:vector:starttime nan
scalar RnisTest.mecHost.virtualisationInfrastructure.tcp.conn-32 rttvar:vector:endtime nan
scalar RnisTest.mecHost.virtualisationInfrastructure.tcp.conn-32 rto:vector:count 0
scalar RnisTest.mecHost.virtualisationInfrastructure.tcp.conn-32 rto:vector:sum 0
scalar RnisTest.mecHost.virtualisationInfrastructure.tcp.conn-32 rto:vector:sumweights 0
scalar RnisTest.mecHost.virtualisationInfrastructure.tcp.conn-32 rto:vector:mean -nan
scalar RnisTest.mecHost.virtualisationInfrastructure.tcp.conn-32 rto:vector:stddev nan
scalar RnisTest.mecHost.virtualisationInfrastructure.tcp.conn-32 rto:vector:min inf
scalar RnisTest.mecHost.virtualisationInfrastructure.tcp.conn-32 rto:vector:max -inf
scalar RnisTest.mecHost.virtualisationInfrastructure.tcp.conn-32 rto:vector:starttime nan
scalar RnisTest.mecHost.virtualisationInfrastructure.tcp.conn-32 rto:vector:endtime nan
scalar RnisTest.mecHost.virtualisationInfrastructure.tcp.conn-32 numRtos:vector:count 0
scalar RnisTest.mecHost.virtualisationInfrastructure.tcp.conn-32 numRtos:vector:sum 0
scalar RnisTest.mecHost.virtualisationInfrastructure.tcp.conn-32 numRtos:vector:sumweights 0
scalar RnisTest.mecHost.virtualisationInfrastructure.tcp.conn-32 numRtos:vector:mean -nan
scalar RnisTest.mecHost.virtualisationInfrastructure.tcp.conn-32 numRtos:vector:stddev nan
scalar RnisTest.mecHost.virtualisationInfrastructure.tcp.conn-32 numRtos:vector:min inf
scalar RnisTest.mecHost.virtualisationInfrastructure.tcp.conn-32 numRtos:vector:max -inf
scalar RnisTest.mecHost.virtualisationInfrastructure.tcp.conn-32 numRtos:vector:starttime nan
scalar RnisTest.mecHost.virtualisationInfrastructure.tcp.conn-32 numRtos:vector:endtime nan
scalar RnisTest.mecHost.virtualisationInfrastructure.tcp.conn-32 load:vector:count 0
scalar RnisTest.mecHost.virtualisationInfrastructure.tcp.conn-32 load:vector:sum 0
scalar RnisTest.mecHost.virtualisationInfrastructure.tcp.conn-32 load:vector:sumweights 0
scalar RnisTest.mecHost.virtualisationInfrastructure.tcp.conn-32 load:vector:mean -nan
scalar RnisTest.mecHost.virtualisationInfrastructure.tcp.conn-32 load:vector:stddev nan
scalar RnisTest.mecHost.virtualisationInfrastructure.tcp.conn-32 load:vector:min inf
scalar RnisTest.mecHost.virtualisationInfrastructure.tcp.conn-32 load:vector:max -inf
scalar RnisTest.mecHost.virtualisationInfrastructure.tcp.conn-32 load:vector:starttime nan
scalar RnisTest.mecHost.virtualisationInfrastructure.tcp.conn-32 load:vector:endtime nan
scalar RnisTest.mecHost.virtualisationInfrastructure.tcp.conn-32 calcLoad:vector:count 0
scalar RnisTest.mecHost.virtualisationInfrastructure.tcp.conn-32 calcLoad:vector:sum 0
scalar RnisTest.mecHost.virtualisationInfrastructure.tcp.conn-32 calcLoad:vector:sumweights 0
scalar RnisTest.mecHost.virtualisationInfrastructure.tcp.conn-32 calcLoad:vector:mean -nan
scalar RnisTest.mecHost.virtualisationInfrastructure.tcp.conn-32 calcLoad:vector:stddev nan
scalar RnisTest.mecHost.virtualisationInfrastructure.tcp.conn-32 calcLoad:vector:min inf
scalar RnisTest.mecHost.virtualisationInfrastructure.tcp.conn-32 calcLoad:vector:max -inf
scalar RnisTest.mecHost.virtualisationInfrastructure.tcp.conn-32 calcLoad:vector:starttime nan
scalar RnisTest.mecHost.virtualisationInfrastructure.tcp.conn-32 calcLoad:vector:endtime nan
scalar RnisTest.mecHost.virtualisationInfrastructure.tcp.conn-32 markingProb:vector:count 0
scalar RnisTest.mecHost.virtualisationInfrastructure.tcp.conn-32 markingProb:vector:sum 0
scalar RnisTest.mecHost.virtualisationInfrastructure.tcp.conn-32 markingProb:vector:sumweights 0
scalar RnisTest.mecHost.virtualisationInfrastructure.tcp.conn-32 markingProb:vector:mean -nan
scalar RnisTest.mecHost.virtualisationInfrastructure.tcp.conn-32 markingProb:vector:stddev nan
scalar RnisTest.mecHost.virtualisationInfrastructure.tcp.conn-32 markingProb:vector:min inf
scalar RnisTest.mecHost.virtualisationInfrastructure.tcp.conn-32 markingProb:vector:max -inf
scalar RnisTest.mecHost.virtualisationInfrastructure.tcp.conn-32 markingProb:vector:starttime nan
scalar RnisTest.mecHost.virtualisationInfrastructure.tcp.conn-32 markingProb:vector:endtime nan

